Measurement: Raman, 532 nm, unoriented, Raman Data Processed
Mineral: Tvalchrelidzeite
Rruff sample: R061128
Ideal chemistry: Hg_3_SbAsS_3_
Locality: Gomi deposit, Rioni River Valley, Caucacus Mountains, Georgia
Source: Michael Scott
Description: Black submetallic with internal red hints, no distinct crystal forms
Measured chemistry: Hg_3.00_Sb_1.00_As_1.00_S_3.00_ : darker inclusions are HgS.
Raman shift (cm-1)	intensity
122.047	0
125.422	12.5166
128.797	31.8287
132.171	23.9565
135.546	7.0368
138.921	19.9529
142.296	20.6757
145.671	60.0683
149.045	82.6218
152.42	66.3372
155.795	20.5261
159.17	48.8854
162.545	63.796
165.919	86.8857
169.294	129.189
172.669	191.727
176.044	270.589
179.419	551.015
182.794	1279.63
186.168	1957.47
189.543	3292.17
192.918	1359.24
196.293	280.224
199.668	245.717
203.042	436.668
206.417	642.808
209.792	870.362
213.167	588.65
216.542	135.155
219.917	5.24634
223.291	20.2795
226.666	8.55029
230.041	3.30667
233.416	17.3245
236.791	65.9144
240.165	113.805
243.54	200.813
246.915	355.993
250.29	542.204
253.665	702.874
257.039	786.912
260.414	612.399
263.789	448.321
267.164	369.843
270.539	303.26
273.913	255.084
277.288	255.285
280.663	272.662
284.038	314.077
287.413	385.659
290.788	485.731
294.162	621.89
297.537	779.483
300.912	825.154
304.287	654.068
307.662	560.198
311.036	477.874
314.411	233.198
317.786	103.151
321.161	92.7687
324.536	74.4518
327.911	59.7611
331.285	36.9009
334.66	19.9486
338.035	6.56427
341.41	13.0422
344.785	5.03308
348.159	0.616486
351.534	12.395
354.909	4.61549
358.284	7.07826
361.659	0.680191
365.034	6.82149
368.408	6.28221
371.783	3.24306
375.158	15.548
378.533	9.396
381.908	15.9318
385.282	18.947
388.657	11.5144
392.032	4.42256
395.407	4.33617
398.782	0.705765
402.156	20.5725
405.531	20.2151
408.906	21.4877
412.281	24.3244
415.656	21.6894
419.031	25.3511
422.405	35.0308
425.78	29.213
429.155	14.4506
432.53	13.9039
435.905	9.35977
439.279	6.77972
442.654	17.3343
446.029	12.188
449.404	5.3298
452.779	5.07904
456.154	7.58206
459.528	26.9511
462.903	14.17
466.278	1.74081
469.653	24.1758
473.028	3.26457
476.402	8.09552
479.777	9.15433
483.152	0.071625
486.527	0.780106
489.902	1.04886
493.276	12.7178
496.651	10.2769
500.026	10.4252
503.401	12.5692
506.776	8.44171
510.151	12.4984
513.525	14.6079
516.9	13.6253
520.275	4.44089
523.65	5.2587
527.025	5.07756
530.399	1.87173
533.774	4.44818
537.149	6.59953
540.524	5.877
543.899	1.9456
547.274	6.54352
550.648	1.23189
554.023	11.7277
557.398	9.12499
560.773	4.16153
564.148	6.18974
567.522	2.21472
570.897	6.77199
574.272	6.31903
577.647	6.64645
581.022	4.09479
584.396	4.13719
587.771	16.1094
591.146	11.9872
594.521	11.6816
597.896	7.72523
601.271	16.243
604.645	9.42102
608.02	13.1028
611.395	35.5902
614.77	16.7251
618.145	15.54
621.519	6.32454
624.894	5.38917
628.269	9.89047
631.644	10.0715
635.019	7.81828
638.394	3.83879
641.768	18.1998
645.143	5.74922
648.518	1.36232
651.893	16.3218
655.268	20.4425
658.642	1.60078
662.017	12.0466
665.392	27.2542
668.767	14.1314
672.142	25.8719
675.516	20.92
678.891	13.7824
682.266	6.50375
685.641	24.5245
689.016	17.4389
692.391	5.6534
695.765	22.7638
699.14	24.0217
702.515	15.4917
705.89	23.2125
709.265	11.9405
712.639	24.2746
716.014	15.0225
719.389	26.6815
722.764	19.175
726.139	8.37556
729.514	29.9294
732.888	10.654
736.263	22.1267
739.638	21.7668
743.013	30.2004
746.388	14.3201
749.762	1.86258
753.137	27.948
756.512	21.0881
759.887	33.9419
763.262	17.5849
766.636	27.7721
770.011	18.5109
773.386	19.7539
776.761	15.5872
780.136	12.3808
783.51	21.3245
786.885	17.0583
790.26	17.0229
793.635	8.15569
797.01	18.3143
800.385	6.8405
803.759	11.7726
807.134	13.4625
810.509	16.4061
813.884	4.42049
817.259	11.7082
820.634	13.6933
824.008	4.77325
827.383	16.1098
830.758	21.0086
834.133	11.7994
837.508	7.42567
840.882	14.7044
844.257	17.8688
847.632	24.9549
851.007	22.2315
854.382	14.7315
857.756	2.56229
861.131	0.865677
864.506	13.2266
867.881	0.826538
871.256	14.879
874.63	15.1905
878.005	21.2697
881.38	22.7874
884.755	6.54842
888.13	12.8046
891.505	6.75432
894.879	25.7197
898.254	13.6847
901.629	21.0099
905.004	13.017
908.379	12.4102
911.754	13.4301
915.128	20.527
918.503	17.6466
921.878	11.4628
925.253	14.6824
928.628	13.3462
932.002	9.44388
935.377	15.8911
938.752	19.5909
942.127	6.15414
945.502	18.9129
948.876	22.3653
952.251	25.6883
955.626	20.5707
959.001	2.64417
962.376	23.0797
965.75	15.9871
969.125	13.219
972.5	17.259
975.875	8.04596
979.25	17.8772
982.625	7.11043
985.999	10.9365
989.374	2.28752
992.749	11.2724
996.124	9.89145
999.499	14.69
1002.87	4.40085
1006.25	22.4856
1009.62	9.07353
1013	19.3426
1016.37	2.11829
1019.75	7.34553
1023.12	13.2922
1026.5	5.0445
1029.87	7.93072
1033.25	1.32663
1036.62	15.3471
1040	2.00978
1043.37	6.86791
1046.75	19.4165
1050.12	12.8566
1053.5	14.8663
1056.87	21.4463
1060.24	19.4589
1063.62	14.663
1066.99	3.29773
1070.37	18.8724
1073.74	8.4088
1077.12	15.2318
1080.49	0.306793
1083.87	15.2146
1087.24	8.95526
1090.62	14.545
1093.99	0.323227
1097.37	5.63472
1100.74	7.77351
1104.12	13.4645
1107.49	13.3182
1110.87	21.9971
1114.24	2.00693
1117.62	22.2872
1120.99	22.9627
1124.37	15.0704
1127.74	19.1302
1131.12	11.4286
1134.49	21.3844
1137.87	15.5626
1141.24	10.0237
1144.62	11.7817
1147.99	20.0586
1151.37	23.6476
1154.74	8.08108
1158.12	10.346
1161.49	15.7934
1164.87	28.0534
1168.24	2.15616
1171.61	19.9413
1174.99	6.38106
1178.36	19.3818
1181.74	15.7414
1185.11	12.3275
1188.49	8.90239
1191.86	0.05835
1195.24	13.8401
1198.61	7.07898
1201.99	2.93027
1205.36	20.7312
1208.74	18.3305
1212.11	7.47931
1215.49	32.2651
1218.86	12.9001
1222.24	20.5913
1225.61	7.91711
1228.99	9.54045
1232.36	18.0752
1235.74	10.163
1239.11	9.23583
1242.48	9.07248
1245.86	25.6572
1249.23	3.9958
1252.61	8.86735
1255.98	9.3564
1259.36	8.51834
1262.73	13.0197
1266.11	13.7759
1269.48	25.3353
1272.86	18.4818
1276.23	19.9831
1279.61	20.3476
1282.98	28.2827
1286.36	10.8251
1289.73	15.405
1293.11	4.48569
1296.48	2.46097
