Measurement: Raman, 785 nm, unoriented, Raman Data Processed
Mineral: Tvalchrelidzeite
Rruff sample: R061128
Ideal chemistry: Hg_3_SbAsS_3_
Locality: Gomi deposit, Rioni River Valley, Caucacus Mountains, Georgia
Source: Michael Scott
Description: Black submetallic with internal red hints, no distinct crystal forms
Measured chemistry: Hg_3.00_Sb_1.00_As_1.00_S_3.00_ : darker inclusions are HgS.
Raman shift (cm-1)	intensity
137.057	0
139.95	8.77441
142.843	1997.96
145.735	6328.46
148.628	10101.3
151.521	10176.3
154.413	4012.46
157.306	1252.68
160.199	1043.81
163.091	1941.95
165.984	3131.17
168.877	2910.36
171.769	4354.56
174.662	6602.48
177.555	9842.76
180.448	19490.2
183.34	47824.3
186.233	95150.4
189.126	168878
192.018	178910
194.911	31095.1
197.804	6896.33
200.696	5437.94
203.589	11105.5
206.482	25051.9
209.375	45881.7
212.267	62902.9
215.16	59040.7
218.053	12684.5
220.945	1239.08
223.838	458.179
226.731	762.371
229.624	623.489
232.516	139.644
235.409	704.36
238.302	2143.34
241.194	4494.82
244.087	8486.13
246.98	15504.1
249.872	26872.6
252.765	43878.1
255.658	61978.3
258.55	68677.4
261.443	50980.7
264.336	31264.1
267.228	22127.3
270.121	16431.2
273.014	10831.7
275.907	7365.84
278.799	6409.4
281.692	6892.09
284.585	8047.94
287.477	9295.63
290.37	10583.5
293.263	14214.7
296.156	21857.1
299.048	31173.8
301.941	36084.1
304.834	31333.7
307.726	29389.3
310.619	28978.7
313.512	18234.1
316.404	8924.4
319.297	5335.27
322.19	5659.31
325.083	7899.41
327.975	10057.9
330.868	8062.8
333.761	3101.18
336.653	1013
339.546	254.661
342.439	69.564
345.331	8.37354
348.224	62.3096
351.117	48.6885
354.01	69.6235
356.902	45.3257
359.795	98.1497
362.688	46.5342
365.58	101.776
368.473	48.1221
371.366	50.2527
374.258	4.88989
377.151	86.2295
380.044	248.45
382.937	378.559
385.829	465.197
388.722	505.804
391.615	512.572
394.507	418.982
397.4	497.182
400.293	521.511
403.185	589.823
406.078	629.712
408.971	628.597
411.863	658.561
414.756	607.099
417.649	601.66
420.542	622.257
423.434	620.758
426.327	690.188
429.22	654.212
432.112	523.121
435.005	324.325
437.898	210.643
440.791	142.238
443.683	146.518
446.576	120.064
449.469	135.588
452.361	154.269
455.254	142.667
458.147	151.496
461.039	131.463
463.932	137.151
466.825	82.5857
469.717	138.26
472.61	74.7627
475.503	56.7507
478.396	102.01
481.288	49.1467
484.181	55.7625
487.074	71.3064
489.966	72.8084
492.859	136.073
495.752	135.882
498.644	131.25
501.537	203.688
504.43	193.934
507.323	244.394
510.215	187.027
513.108	206.239
516.001	233.952
518.893	223.189
521.786	216.727
524.679	185.724
527.572	171.158
530.464	87.6904
533.357	34.3376
536.25	35.6182
539.142	14.2844
542.035	11.6882
544.928	28.4607
547.82	7.94092
550.713	20.4932
553.606	17.6763
556.499	7.12036
559.391	20.8943
562.284	1.97681
565.177	0.359375
568.069	6.01099
570.962	47.6274
573.855	26.6834
576.747	42.6914
579.64	40.4883
582.533	30.646
585.425	25.623
588.318	43.9761
591.211	35.1084
594.104	43.0596
596.996	24.687
599.889	23.6201
602.782	59.4492
605.674	48.2368
608.567	85.3716
611.46	101.519
614.352	103.444
617.245	101.027
620.138	141.578
623.03	81.9004
625.923	116.293
628.816	94.8379
631.709	97.7673
634.601	95.1257
637.494	104.998
640.387	84.6641
643.279	57.8191
646.172	103.419
649.065	104.737
651.957	85.1912
654.85	64.1646
657.743	40.4898
660.636	50.9502
663.528	31.4648
666.421	11.6819
669.314	18.6475
672.206	24.7742
675.099	31.0293
677.992	1.8977
680.885	24.6052
683.777	22.4634
686.67	52.4319
689.563	30.9397
692.455	24.1299
695.348	19.6191
698.241	31.5564
701.133	37.1572
704.026	55.3662
706.919	56.8706
709.812	60.2583
712.704	57.5515
715.597	51.7593
718.49	101.52
721.382	83.7969
724.275	75.0049
727.168	57.7227
730.06	52.6746
732.953	77.4312
735.846	101.427
738.739	52.0278
741.631	80.0984
744.524	17.5261
747.417	76.6216
750.309	62.4248
753.202	63.0225
756.095	66.4741
758.987	59.377
761.88	58.8171
764.773	47.2949
767.665	28.6143
770.558	61.8957
773.451	73.8164
776.344	10.3484
779.236	70.8284
782.129	50.2739
785.022	36.102
787.914	63.1802
790.807	60.2642
793.7	32.1077
796.592	39.6536
799.485	37.5767
802.378	40.0708
805.271	47.2417
808.163	41.0478
811.056	64.8284
813.949	49.5564
816.841	39.1685
819.734	31.9668
822.627	36.4751
825.519	6.11987
828.412	37.9905
831.305	47.7315
834.198	13.1033
837.09	52.8286
839.983	36.8921
842.876	32.1472
845.768	0.695801
848.661	44.1177
851.554	57.1685
854.447	8.27734
857.339	28.8906
860.232	23.3911
863.125	24.4822
866.017	25.5994
868.91	31.9094
871.803	29.7673
874.695	20.7471
877.588	61.127
880.481	50.8704
883.373	33.1836
886.266	2.84717
889.159	50.6792
892.052	34.332
894.944	14.4275
897.837	29.4868
900.73	38.8594
903.622	21.6521
906.515	54.8079
909.408	20.2512
912.3	47.4958
915.193	78.7212
918.086	22.4819
920.979	44.7378
923.871	25.1365
926.764	33.948
929.657	19.8804
932.549	52.7202
935.442	44.1023
938.335	37.7651
941.227	48.9485
944.12	20.2231
947.013	31.748
949.905	52.9226
952.798	76.9016
955.691	13.6218
958.584	34.4917
961.476	35.959
964.369	57.7189
967.262	33.1683
970.154	37.3503
973.047	34.7422
975.94	26.2527
978.832	78.9744
981.725	44.8071
984.618	50.7241
987.511	26.6855
990.403	23.2858
993.296	44.4133
996.189	43.5212
999.081	32.8055
1001.97	57.1338
1004.87	50.4783
1007.76	68.6803
1010.65	36.725
1013.54	46.147
1016.44	29.6804
1019.33	18.9224
1022.22	16.8204
1025.12	17.1815
1028.01	52.8032
1030.9	39.6313
1033.79	22.7389
1036.69	44.0377
1039.58	33.5254
1042.47	57.4976
1045.37	45.8457
1048.26	30.0765
1051.15	65.4056
1054.04	56.3517
1056.93	13.5469
1059.83	24.6222
1062.72	50.9368
1065.61	15.8546
1068.51	34.6652
1071.4	21.9519
1074.29	5.37244
1077.18	2.36523
1080.08	35.8132
1082.97	27.2539
1085.86	33.0963
1088.76	8.5188
1091.65	42.6035
1094.54	35.5354
1097.43	50.1375
1100.33	11.6357
1103.22	44.0631
1106.11	32.0903
1109	22.8262
1111.9	12.9779
1114.79	22.6627
1117.68	21.9247
1120.58	18.5424
1123.47	18.4849
1126.36	22.7639
1129.25	26.2745
1132.15	24.2351
1135.04	1.63061
1137.93	43.5687
1140.82	30.4116
1143.72	27.4534
1146.61	25.7627
1149.5	37.4028
1152.39	53.8839
1155.29	5.67432
1158.18	37.9695
1161.07	19.8011
1163.96	30.1223
1166.86	20.8755
1169.75	48.8937
1172.64	11.2107
1175.54	64.6185
1178.43	38.5698
1181.32	36.6523
1184.21	20.2158
1187.11	28.793
1190	42.3081
1192.89	45.0059
1195.79	49.8717
1198.68	46.4193
1201.57	26.7051
1204.46	23.0619
1207.36	60.7548
1210.25	80.4023
1213.14	41.0441
1216.03	62.9646
1218.93	27.582
1221.82	30.8608
1224.71	77.957
1227.61	70.9468
1230.5	66.0974
1233.39	52.6681
1236.28	54.9215
1239.17	13.917
1242.07	82.4112
1244.96	41.6753
1247.85	59.029
1250.75	65.6256
1253.64	57.812
1256.53	23.5295
1259.42	40.087
1262.32	24.1279
1265.21	20.8085
1268.1	0.085815
