Measurement: Raman, 532 nm, unoriented, Raman Data Processed
Mineral: Tychite
Rruff sample: R060700
Ideal chemistry: Na_6_Mg_2_(CO_3_)_4_(SO_4_)
Locality: Borax Lake, Lake County, California
Source: Michael Scott
Description: Colorless octahedra
Measured chemistry: Na_6.00_(Mg_1.99_Ca_0.01_)_Î£=2.00_(CO_3_)_4_(S_1.00_O_4_) ; C not measured but estimated by difference and stoichiometry
Raman shift (cm-1)	intensity
148.038	0
150.931	200.207
153.824	99.7402
156.716	64.1367
159.609	225.152
162.502	422.109
165.394	571.834
168.287	565.699
171.18	361.055
174.072	391.283
176.965	705.68
179.858	767.15
182.751	644.367
185.643	576.912
188.536	753.029
191.429	783.902
194.321	1061.43
197.214	1381
200.107	2002.85
202.999	2970.65
205.892	4163.82
208.785	4919.32
211.678	4600.58
214.57	3664.57
217.463	3290.54
220.356	3313.3
223.248	3252.58
226.141	2769.6
229.034	2532.45
231.926	2375.58
234.819	2318.07
237.712	2401.61
240.605	2783.08
243.497	3654
246.39	4628.31
249.283	4806.22
252.176	3685.21
255.068	2473.29
257.961	1767.88
260.854	1264.99
263.746	832.762
266.639	526.797
269.532	231.629
272.424	58.2148
275.317	52.0156
278.21	92.3633
281.103	89.5352
283.995	283.883
286.888	312.668
289.781	468.059
292.673	584.941
295.566	746.816
298.459	840.891
301.351	932.008
304.244	1176.3
307.137	859.934
310.03	554.816
312.922	365.992
315.815	146.832
318.708	50.1211
321.6	113.356
324.493	38.7109
327.386	26.7031
330.278	58.0781
333.171	17.082
336.064	102.875
338.957	66.6367
341.849	177.09
344.742	29.1953
347.635	11.25
350.527	126.859
353.42	257.961
356.313	260.43
359.205	208.606
362.098	117.602
364.991	233.356
367.884	44.7383
370.776	115.316
373.669	216.934
376.562	181.691
379.454	155.465
382.347	117.055
385.24	20.9375
388.132	203.129
391.025	241.387
393.918	215.441
396.81	265.5
399.703	177.543
402.596	139.379
405.489	191.242
408.381	176.133
411.274	266.609
414.167	279.801
417.06	351.707
419.952	329.332
422.845	291.051
425.738	265.394
428.63	10.9375
431.523	181.043
434.416	114.269
437.308	262.441
440.201	200.582
443.094	277.082
445.987	368.246
448.879	218.176
451.772	496.656
454.665	708.766
457.557	913.191
460.45	1424.91
463.343	1678.17
466.235	1199.61
469.128	702.781
472.021	543.547
474.914	447.074
477.806	245.141
480.699	2.26562
483.592	158.484
486.484	433.871
489.377	314.074
492.27	216.207
495.162	39.6875
498.055	72.2539
500.948	40.4219
503.841	33.4414
506.733	68.4062
509.626	62.0742
512.519	61.707
515.411	80.8125
518.304	76.5625
521.197	104.781
524.089	375.062
526.982	334.711
529.875	160.238
532.768	232.945
535.66	46.8984
538.553	84.0742
541.446	108.66
544.338	24.3086
547.231	140.012
550.124	235.848
553.016	141.766
555.909	145.387
558.802	201.793
561.695	2.83594
564.587	260.988
567.48	385.602
570.373	212.098
573.265	297.789
576.158	381.231
579.051	283.363
581.943	87.7773
584.836	347.891
587.729	151.773
590.622	270.504
593.514	352.34
596.407	401.062
599.3	411.215
602.192	377.531
605.085	586.231
607.978	783.016
610.87	755.496
613.763	874.031
616.656	1080.52
619.549	1408.18
622.441	2225.37
625.334	2993.01
628.227	3990.9
631.119	4631.27
634.012	2346.2
636.905	891.231
639.797	459.555
642.69	127.125
645.583	53.5898
648.476	177.176
651.368	549.117
654.261	443.812
657.154	379.949
660.046	397.43
662.939	192.211
665.832	164.332
668.724	283.375
671.617	290.793
674.51	222.984
677.403	74.3906
680.295	172.809
683.188	192.062
686.081	422.949
688.973	324.516
691.866	214.617
694.759	366.434
697.652	470.219
700.544	488.289
703.437	230.492
706.33	484.125
709.222	583.973
712.115	871.465
715.008	1423.98
717.901	2267.86
720.793	2092.03
723.686	1213.61
726.579	594.484
729.471	516.336
732.364	118.242
735.257	86.543
738.149	314.832
741.042	36.6953
743.935	313.09
746.828	431.199
749.72	552.234
752.613	244.481
755.506	130.746
758.398	329.176
761.291	165.781
764.184	27.8438
767.076	36.6484
769.969	425.644
772.862	300.812
775.755	157.598
778.647	150.402
781.54	153.305
784.433	126.496
787.325	172.644
790.218	278.211
793.111	292.363
796.003	568.387
798.896	542.75
801.789	293.996
804.682	267.043
807.574	272.547
810.467	369.445
813.36	306.723
816.252	306.969
819.145	241.238
822.038	30.9102
824.93	87.2578
827.823	81.3711
830.716	358.406
833.609	225.641
836.501	181.242
839.394	98.6914
842.287	132.25
845.179	341.074
848.072	206.117
850.965	256.297
853.857	15.7266
856.75	114.234
859.643	135.769
862.536	275.664
865.428	383.891
868.321	220.988
871.214	110.391
874.106	77.9023
876.999	140.211
879.892	154.852
882.784	476.477
885.677	303.535
888.57	223.5
891.463	544.519
894.355	690.422
897.248	765.406
900.141	539.375
903.033	439.508
905.926	232.484
908.819	96.4531
911.711	28.7148
914.604	77.5352
917.497	30.5
920.39	16.7852
923.282	179.117
926.175	260.648
929.068	576.133
931.96	473.699
934.853	216.125
937.746	110.441
940.638	373.273
943.531	324.269
946.424	207.402
949.317	377.969
952.209	579.875
955.102	1192.38
957.995	2663.83
960.888	5506.35
963.78	11377.8
966.673	30950.1
969.566	21389.9
972.458	2999.46
975.351	1125.81
978.244	826.289
981.136	502.992
984.029	366.016
986.922	159.062
989.815	158.109
992.707	57.9688
995.6	133.219
998.493	91.375
1001.38	320.602
1004.28	339.297
1007.17	232.312
1010.06	127.609
1012.96	107.992
1015.85	2.25
1018.74	5.10938
1021.63	40.3984
1024.53	116.938
1027.42	144.75
1030.31	320.133
1033.2	296.039
1036.1	81.8125
1038.99	314.805
1041.88	250.992
1044.78	13.9766
1047.67	1.13281
1050.56	1.16406
1053.45	138.898
1056.35	315.109
1059.24	452.164
1062.13	525.219
1065.03	131.898
1067.92	305.039
1070.81	1339.09
1073.7	731.219
1076.6	347.266
1079.49	165.195
1082.38	219.555
1085.27	572.703
1088.17	978.406
1091.06	1388.77
1093.95	2758.95
1096.84	5500.07
1099.74	11932.1
1102.63	15026.1
1105.52	18369.4
1108.41	45896.7
1111.31	24429.7
1114.2	4062.09
1117.09	2019.49
1119.99	1054.72
1122.88	842.836
1125.77	982.945
1128.66	2266.45
1131.56	4240.73
1134.45	8045.19
1137.34	8874.16
1140.23	2099.07
1143.13	988.281
1146.02	513.82
1148.91	177.734
1151.81	403.273
1154.7	596.484
1157.59	963.5
1160.48	493.328
1163.38	392.867
1166.27	51.9375
1169.16	171.031
1172.06	27.4453
1174.95	407.281
1177.84	460.406
1180.73	520.008
1183.62	536.891
1186.52	591.625
1189.41	464.898
1192.3	187.625
1195.2	110.164
1198.09	16.0234
1200.98	9.49219
1203.87	177.883
1206.77	115.961
1209.66	375.234
1212.55	519.492
1215.44	392.516
1218.34	195.742
1221.23	157.594
1224.12	424.758
1227.02	365.227
1229.91	523.109
1232.8	136.883
1235.69	529.141
1238.59	751
1241.48	711.008
1244.37	409.977
1247.27	737.617
1250.16	614.062
1253.05	495.547
1255.94	440.047
1258.84	480.625
1261.73	512.68
1264.62	90.1328
1267.51	115.117
1270.41	272.57
1273.3	764.688
1276.19	1009.38
1279.09	578.398
1281.98	495.039
1284.87	257.867
1287.76	373.016
1290.66	64.3125
1293.55	147.016
1296.44	17.5938
