Measurement: Raman, 780 nm, unoriented, Raman Data Processed
Mineral: Tychite
Rruff sample: R050218
Ideal chemistry: Na_6_Mg_2_(CO_3_)_4_(SO_4_)
Locality: Searles Lake, Trona, San Bernardino County, California, USA
Source: Marcus Origlieri
Description: Colorless octahedral crystals
Measured chemistry: Na_6.00_Mg_2.00_(CO_3_)_4_(S_1.00_O_4_) ; C not measured but estimated by difference and stoichiometry
Raman shift (cm-1)	intensity
163.707	0
166.6	0.852966
169.492	0.054749
172.385	6.05542
175.278	11.5753
178.17	13.5523
181.063	13.9808
183.956	11.7419
186.848	25.3463
189.741	47.548
192.634	76.1
195.526	106.491
198.419	154.48
201.312	215.814
204.205	289.46
207.097	361.676
209.99	387.154
212.883	326.893
215.775	276.206
218.668	275.089
221.561	275.46
224.453	251.609
227.346	222.476
230.239	211.891
233.132	212.276
236.024	208.35
238.917	226.06
241.81	272.463
244.702	330.401
247.595	369.049
250.488	308.149
253.381	211.873
256.273	155.225
259.166	109.369
262.059	51.9303
264.951	17.7021
267.844	3.57696
270.737	2.98065
273.629	2.39478
276.522	4.36157
279.415	8.16162
282.308	17.6257
285.2	29.335
288.093	41.9833
290.986	61.9044
293.878	76.7003
296.771	86.8254
299.664	102.857
302.556	98.4545
305.449	71.8084
308.342	37.9063
311.235	18.0989
314.127	10.5638
317.02	1.61554
319.913	3.72394
322.805	0.209595
325.698	3.3056
328.591	1.33704
331.483	1.58124
334.376	0.122681
337.269	0.243713
340.161	1.08649
343.054	0.672913
345.947	2.80505
348.839	2.04663
351.732	4.0274
354.625	2.90814
357.518	5.07141
360.41	3.37555
363.303	6.4231
366.196	5.64429
369.088	8.289
371.981	6.84375
374.874	6.24249
377.767	10.5093
380.659	7.61865
383.552	6.98474
386.445	5.85004
389.337	8.60376
392.23	7.02283
395.123	4.03754
398.015	4.612
400.908	6.64777
403.801	7.15332
406.693	4.8241
409.586	2.60706
412.479	2.35748
415.372	0.395996
418.264	2.64441
421.157	3.40008
424.05	4.19721
426.942	3.11401
429.835	6.04639
432.728	10.2182
435.62	8.66425
438.513	10.2257
441.406	14.3306
444.299	24.0828
447.191	28.8843
450.084	37.1859
452.977	43.0226
455.869	55.2154
458.762	79.9218
461.655	104.992
464.548	90.6842
467.44	59.1664
470.333	32.1492
473.226	23.0635
476.118	14.135
479.011	13.9457
481.904	8.30603
484.796	10.6138
487.689	9.1983
490.582	6.85889
493.474	8.45245
496.367	6.09381
499.26	4.06122
502.153	3.07477
505.045	6.81934
507.938	2.19873
510.831	2.44897
513.723	4.15637
516.616	1.5882
519.509	0.970398
522.402	0.442261
525.294	0.507202
528.187	3.51324
531.08	1.14667
533.972	0.285828
536.865	1.05933
539.758	1.05225
542.65	2.41248
545.543	0.95636
548.436	0.581909
551.329	0.395264
554.221	0.024841
557.114	3.94965
560.007	0.256775
562.899	4.13117
565.792	2.24615
568.685	3.6286
571.577	3.86926
574.47	2.08081
577.363	3.60864
580.256	6.15991
583.148	11.1875
586.041	16.3438
588.934	16.6208
591.826	17.6011
594.719	19.947
597.612	20.3912
600.504	26.2655
603.397	27.5294
606.29	36.5435
609.183	43.1852
612.075	58.0096
614.968	72.5901
617.861	88.6696
620.753	111.857
623.646	151.896
626.539	221.965
629.431	299.682
632.324	221.289
635.217	83.7977
638.11	31.5936
641.002	14.5416
643.895	7.50809
646.788	7.45071
649.68	2.95737
652.573	0.600189
655.466	0.532715
658.358	2.22595
661.251	0.898102
664.144	0.822052
667.037	2.41119
669.929	3.67426
672.822	4.26105
675.715	0.337372
678.607	0.861725
681.5	0.275238
684.393	1.11569
687.285	5.8389
690.178	7.12924
693.071	7.43228
695.963	4.99866
698.856	10.1288
701.749	24.5537
704.642	31.6409
707.534	42.4261
710.427	58.4986
713.32	85.0653
716.212	130.465
719.105	143.834
721.998	83.5293
724.89	35.5046
727.783	19.0388
730.676	9.84604
733.569	5.53473
736.461	3.46313
739.354	3.47217
742.247	0.230835
745.139	4.07086
748.032	2.90836
750.925	0.844482
753.817	1.96494
756.71	0.734344
759.603	1.35785
762.496	0.768036
765.388	1.47693
768.281	0.783691
771.174	1.00287
774.066	1.82178
776.959	0.714569
779.852	3.58023
782.745	4.17319
785.637	0.188843
788.53	0.075653
791.423	1.92108
794.315	0.315796
797.208	3.26556
800.101	2.76654
802.993	3.29318
805.886	1.57605
808.779	2.11581
811.672	2.78424
814.564	1.90817
817.457	3.31064
820.35	2.58847
823.242	2.09701
826.135	2.41229
829.028	3.75058
831.92	3.9072
834.813	3.50317
837.706	2.17441
840.598	1.30237
843.491	3.41223
846.384	4.84387
849.277	2.42899
852.169	1.93002
855.062	4.79712
857.955	4.00839
860.847	2.59802
863.74	0.163635
866.633	3.71149
869.525	2.42313
872.418	2.28656
875.311	4.32031
878.204	5.44028
881.096	16.9631
883.989	11.6
886.882	0.830353
889.774	2.21762
892.667	0.907196
895.56	3.1597
898.452	0.105225
901.345	2.05014
904.238	2.62176
907.131	0.904694
910.023	4.00766
912.916	1.88577
915.809	4.05933
918.701	8.03543
921.594	5.24783
924.487	7.79065
927.38	7.81574
930.272	6.52185
933.165	6.8049
936.058	9.44333
938.95	9.49847
941.843	14.5204
944.736	22.325
947.628	34.7961
950.521	81.2634
953.414	236.922
956.307	272.818
959.199	404.16
962.092	642.692
964.985	1432.83
967.877	2690.01
970.77	456.252
973.663	131.424
976.555	68.8072
979.448	37.7243
982.341	23.1775
985.234	13.1384
988.126	8.54096
991.019	8.03787
993.912	4.70566
996.804	5.30835
999.697	1.38123
1002.59	1.53458
1005.48	0.955383
1008.38	1.59994
1011.27	0.188019
1014.16	1.18365
1017.05	1.63974
1019.95	0.609436
1022.84	0.955566
1025.73	0.318604
1028.62	1.71945
1031.52	4.08108
1034.41	3.90964
1037.3	8.61688
1040.19	16.1462
1043.09	8.89896
1045.98	4.67865
1048.87	5.26395
1051.77	4.25589
1054.66	5.35129
1057.55	8.16696
1060.44	6.293
1063.34	10.2652
1066.23	7.08972
1069.12	6.62448
1072.02	9.9902
1074.91	14.4397
1077.8	18.0664
1080.69	30.3994
1083.59	42.9855
1086.48	64.9916
1089.37	101.913
1092.26	165.053
1095.16	373.456
1098.05	626.003
1100.94	983.507
1103.83	1020.72
1106.73	1895.95
1109.62	2931.95
1112.51	623.827
1115.4	189.78
1118.3	97.7721
1121.19	77.8769
1124.08	92.3125
1126.98	107.998
1129.87	164.196
1132.76	275.423
1135.65	486.068
1138.55	180.27
1141.44	35.4078
1144.33	12.8619
1147.22	4.19278
1150.12	3.4375
1153.01	0.225037
1155.9	2.04068
1158.8	2.44888
1161.69	1.80847
1164.58	1.58411
1167.47	2.10074
1170.37	0.370392
1173.26	1.00604
1176.15	0.844849
1179.04	1.4223
1181.94	1.94311
1184.83	1.3399
1187.72	3.59363
1190.62	0.221802
1193.51	2.09082
1196.4	0.805328
1199.29	1.45438
1202.19	2.34387
1205.08	0.619171
1207.97	0.087921
1210.86	1.26337
1213.76	3.25333
1216.65	0.746582
1219.54	0.812683
1222.43	0.847839
1225.33	2.24957
1228.22	1.51996
1231.11	5.30255
1234.01	2.9458
1236.9	4.17294
1239.79	7.15289
1242.68	3.97559
1245.58	5.61102
1248.47	4.08871
1251.36	3.47858
1254.26	1.49728
1257.15	6.19418
1260.04	2.68662
1262.93	2.56915
1265.83	3.06665
1268.72	2.29102
1271.61	0.359222
1274.5	2.63989
1277.4	2.6181
