Measurement: Raman, 532 nm, unoriented, Raman Data Processed
Mineral: Tychite
Rruff sample: R050218
Ideal chemistry: Na_6_Mg_2_(CO_3_)_4_(SO_4_)
Locality: Searles Lake, Trona, San Bernardino County, California, USA
Source: Marcus Origlieri
Description: Colorless octahedral crystals
Measured chemistry: Na_6.00_Mg_2.00_(CO_3_)_4_(S_1.00_O_4_) ; C not measured but estimated by difference and stoichiometry
Raman shift (cm-1)	intensity
163.171	0
166.064	25.868
168.956	13.3888
171.849	19.6499
174.742	18.884
177.634	27.5166
180.527	17.3733
183.42	13.7854
186.312	7.71314
189.205	31.0166
192.098	61.908
194.991	109.052
197.883	147.309
200.776	219.817
203.669	329.624
206.561	450.871
209.454	529.79
212.347	482.447
215.239	379.868
218.132	348.991
221.025	347.176
223.918	328.094
226.81	282.831
229.703	248.159
232.596	245.408
235.488	243.737
238.381	284.859
241.274	333.589
244.167	429.505
247.059	520.811
249.952	513.732
252.845	378.404
255.737	271.976
258.63	184.301
261.523	121.444
264.415	44.9797
267.308	20.7825
270.201	14.0859
273.093	1.59961
275.986	8.00171
278.879	0.05957
281.772	6.25708
284.664	23.6287
287.557	34.0911
290.45	48.2043
293.342	75.3069
296.235	103.3
299.128	123.617
302.02	122.129
304.913	116.313
307.806	69.0591
310.699	25.1606
313.591	15.0425
316.484	12.7109
319.377	10.5942
322.269	1.69238
325.162	7.48682
328.055	2.69067
330.947	10.2898
333.84	9.00122
336.733	3.49976
339.625	4.51782
342.518	14.738
345.411	13.1999
348.304	3.55591
351.196	2.77222
354.089	4.6355
356.982	4.99878
359.874	4.22412
362.767	18.5811
365.66	13.3054
368.553	5.04541
371.445	13.5352
374.338	5.21362
377.231	4.16186
380.123	18.4365
383.016	9.23438
385.909	15.9404
388.801	18.5252
391.694	4.8645
394.587	11.0037
397.479	4.94092
400.372	6.22974
403.265	15.7192
406.158	6.33447
409.05	6.68457
411.943	11.5481
414.836	22.8713
417.728	10.926
420.621	14.2527
423.514	4.28271
426.406	15.3533
429.299	7.49072
432.192	5.19946
435.085	14.7695
437.977	19.4907
440.87	13.3635
443.763	10.9568
446.655	36.3577
449.548	35.8433
452.441	51.7659
455.334	78.9629
458.226	97.8401
461.119	142.031
464.012	151.993
466.904	112.353
469.797	57.7539
472.69	25.6748
475.582	23.2732
478.475	44.0562
481.368	18.7263
484.26	23.3362
487.153	13.2449
490.046	9.04004
492.939	29.5102
495.831	23.4624
498.724	3.40356
501.617	0.454834
504.509	19.3669
507.402	13.0828
510.295	3.59937
513.188	3.96728
516.08	2.49146
518.973	11.9946
521.866	7.71216
524.758	12.4075
527.651	3.16431
530.544	6.12646
533.436	5.41772
536.329	2.22827
539.222	21.4883
542.115	9.34717
545.007	8.23779
547.9	0.12207
550.793	6.6355
553.685	4.03711
556.578	9.35229
559.471	1.33643
562.363	10.4785
565.256	17.3709
568.149	7.07495
571.042	3.16016
573.934	8.70508
576.827	9.15894
579.72	27.772
582.612	13.7192
585.505	15.1707
588.398	17.928
591.29	28.7439
594.183	42.2988
597.076	36.5005
599.968	38.581
602.861	40.2707
605.754	53.4255
608.646	40.1489
611.539	67.4077
614.432	73.2705
617.325	98.7554
620.217	144.251
623.11	180.542
626.003	269.573
628.895	370.757
631.788	388.05
634.681	188.122
637.573	64.3545
640.466	31.4465
643.359	16.908
646.252	13.9148
649.144	17.8313
652.037	6.10547
654.93	10.1462
657.822	4.36328
660.715	5.41211
663.608	12.2732
666.5	4.47559
669.393	17.2715
672.286	30.6033
675.179	18.1326
678.071	20.3066
680.964	26.436
683.857	5.78613
686.75	5.24243
689.642	15.7339
692.535	19.6367
695.428	26.6411
698.32	21.2056
701.213	33.2842
704.106	49.228
706.998	59.7571
709.891	78.3528
712.784	114.334
715.677	164.593
718.569	194.21
721.462	163.602
724.355	68.1472
727.247	42.2361
730.14	12.606
733.033	7.74072
735.925	8.33325
738.818	1.90967
741.711	15.2422
744.604	13.0903
747.496	10.7537
750.389	15.6394
753.282	6.39233
756.174	2.32422
759.067	10.8938
761.96	11.7661
764.852	9.36621
767.745	0.886719
770.638	12.1851
773.53	4.02246
776.423	14.8415
779.316	19.4194
782.209	8.24219
785.101	11.2371
787.994	12.4863
790.887	7.92578
793.779	2.25366
796.672	15.957
799.565	2.54077
802.457	14.7466
805.35	8.32861
808.243	1.7063
811.135	6.55518
814.028	5.22119
816.921	20.9568
819.814	20.9612
822.706	11.9741
825.599	23.8945
828.492	8.16943
831.384	11.2307
834.277	10.5205
837.17	9.61694
840.062	1.43311
842.955	4.15771
845.848	3.2937
848.741	2.07397
851.633	0.658203
854.526	10.8757
857.419	18.4976
860.311	11.0107
863.204	7.63843
866.097	2.55347
868.99	2.8418
871.882	6.35767
874.775	18.0542
877.668	17.4458
880.56	19.6184
883.453	38.3782
886.346	14.4968
889.238	1.62524
892.131	11.5774
895.024	7.5686
897.917	11.1626
900.809	16.5647
903.702	3.3457
906.595	17.2039
909.487	4.13623
912.38	18.772
915.273	8.63525
918.165	11.5076
921.058	20.3621
923.951	12.7039
926.843	23.5088
929.736	7.13379
932.629	11.1077
935.522	0.783447
938.414	20.4053
941.307	26.9639
944.2	44.6362
947.092	44.9348
949.985	59.8911
952.878	107.51
955.77	238.17
958.663	355.959
961.556	597.72
964.449	1433.19
967.341	3866.91
970.234	1997.96
973.127	314.643
976.019	137.906
978.912	51.4258
981.805	54.3306
984.697	33.1995
987.59	11.9697
990.483	10.6406
993.375	16.9153
996.268	13.7534
999.161	17.9368
1002.05	2.20215
1004.95	3.229
1007.84	4.10986
1010.73	4.26294
1013.62	7.39844
1016.52	0.126465
1019.41	13.7495
1022.3	0.632324
1025.19	16.7261
1028.09	2.96265
1030.98	7.14771
1033.87	1.88818
1036.77	12.2441
1039.66	36.2444
1042.55	34.7712
1045.44	14.9485
1048.34	7.03491
1051.23	24.249
1054.12	5.05615
1057.02	18.5095
1059.91	28.2263
1062.8	7.69531
1065.69	24.3852
1068.59	0.364502
1071.48	13.4849
1074.37	13.875
1077.26	13.863
1080.16	32.5032
1083.05	44.1174
1085.94	57.1033
1088.84	86.2214
1091.73	139.91
1094.62	249.632
1097.51	547.714
1100.4	1123.46
1103.3	1375.13
1106.19	1949.16
1109.08	4976.82
1111.98	2743.89
1114.87	540.727
1117.76	193.675
1120.65	115.79
1123.55	93.0823
1126.44	105.834
1129.33	151.524
1132.22	286.693
1135.12	603.971
1138.01	649.245
1140.9	115.63
1143.8	30.352
1146.69	14.2798
1149.58	0.653564
1152.47	1.34814
1155.37	8.22388
1158.26	6.73828
1161.15	2.97388
1164.05	7.01221
1166.94	14.5366
1169.83	7.39697
1172.72	0.587646
1175.62	10.396
1178.51	10.967
1181.4	10.2432
1184.29	13.6521
1187.19	14.9812
1190.08	31.9705
1192.97	0.803711
1195.87	18.3394
1198.76	6.46948
1201.65	15.206
1204.54	2.81616
1207.43	20.3076
1210.33	18.7764
1213.22	32.0786
1216.11	31.6504
1219.01	31.1475
1221.9	28.7202
1224.79	10.7783
1227.68	31.7192
1230.58	31.3989
1233.47	20.2529
1236.36	21.689
1239.26	0.45459
1242.15	11.7656
1245.04	20.9878
1247.93	29.9048
1250.83	26.6401
1253.72	31.4736
1256.61	35.8643
1259.5	21.0435
1262.4	9.50537
1265.29	26.9429
1268.18	4.07861
1271.08	22.6621
1273.97	21.1352
1276.86	8.2041
1279.75	13.5176
1282.65	8.88086
1285.54	19.9844
1288.43	2.27539
1291.32	4.42041
1294.22	4.22266
