Measurement: Raman, 785 nm, unoriented, Raman Data Processed
Mineral: Tychite
Rruff sample: R060700
Ideal chemistry: Na_6_Mg_2_(CO_3_)_4_(SO_4_)
Locality: Borax Lake, Lake County, California
Source: Michael Scott
Description: Colorless octahedra
Measured chemistry: Na_6.00_(Mg_1.99_Ca_0.01_)_Î£=2.00_(CO_3_)_4_(S_1.00_O_4_) ; C not measured but estimated by difference and stoichiometry
Raman shift (cm-1)	intensity
146.116	0
149.009	241.458
151.901	447.044
154.794	614.277
157.687	7.66064
160.579	36.9458
163.472	305.865
166.365	584.67
169.258	815.494
172.15	983.061
175.043	852.692
177.936	788.635
180.828	545.52
183.721	398.743
186.614	523.583
189.507	689.564
192.399	766.627
195.292	1163.87
198.185	1632.17
201.077	2570.77
203.97	3729.98
206.863	4642.41
209.755	4936.25
212.648	4208.66
215.541	3608.73
218.434	3549.72
221.326	3584.57
224.219	3310.39
227.112	2848.3
230.004	2567.19
232.897	2462.09
235.79	2440.04
238.682	2800.87
241.575	3504.9
244.468	4294.38
247.361	4919.4
250.253	4395.38
253.146	3411.78
256.039	2613.74
258.931	1890.45
261.824	1126.98
264.717	604.891
267.609	266.326
270.502	72.6894
273.395	27.6504
276.287	60.3975
279.18	7.4834
282.073	197.157
284.966	380.759
287.858	559.576
290.751	703.17
293.644	975.231
296.536	1140.19
299.429	1392.3
302.322	1534.69
305.214	1116.38
308.107	706.077
311	364.274
313.892	182.901
316.785	12.9932
319.678	45.8799
322.571	43.6338
325.463	6.29981
328.356	106.326
331.249	118.819
334.141	73.0566
337.034	32.9287
339.927	35.7451
342.819	47.334
345.712	60.541
348.605	75.124
351.498	104.568
354.39	155.738
357.283	127.005
360.176	61.9727
363.069	128.844
365.961	49.5068
368.854	97.6103
371.747	163.693
374.639	230.511
377.532	276.568
380.425	249.693
383.317	190.058
386.21	205.844
389.103	129.541
391.996	164.006
394.888	194.304
397.781	126.435
400.674	88.3867
403.566	61.709
406.459	24.3525
409.352	8.16699
412.244	13.6543
415.137	4.10644
418.03	101.793
420.922	96.8154
423.815	94.2568
426.708	59.9883
429.601	164.165
432.493	22.4111
435.386	54.5342
438.279	62.542
441.171	127.343
444.064	186.782
446.957	276.011
449.849	369.317
452.742	462.568
455.635	673.674
458.527	1040.38
461.42	1470.17
464.313	1382.38
467.206	885.077
470.098	519.915
472.991	366.558
475.884	217.311
478.776	204.608
481.669	119.207
484.562	88.4512
487.454	141.784
490.347	124.193
493.24	140.267
496.133	109.51
499.025	43.459
501.918	51.7002
504.811	10.4873
507.703	44.9336
510.596	74.1445
513.489	71.5352
516.381	74.7432
519.274	76.4053
522.167	15.9082
525.06	37.6875
527.952	86.2822
530.845	89.0537
533.738	2.74121
536.63	32.6904
539.523	34.8125
542.416	73.4541
545.308	20.6191
548.201	7.25488
551.094	44.3565
553.987	2.20117
556.879	32.2988
559.772	21.374
562.665	20.5645
565.557	73.8213
568.45	33.6504
571.343	38.2744
574.235	36.7598
577.128	6.20801
580.021	88.3086
582.914	120.852
585.806	181.256
588.699	153.199
591.592	237.634
594.484	222.407
597.377	275.272
600.27	315.038
603.162	434.452
606.055	411.006
608.948	494.856
611.841	556.13
614.733	696.464
617.626	897.354
620.519	1381.92
623.411	2234.15
626.304	3479.87
629.197	4620.28
632.089	3743.47
634.982	1504.07
637.875	593.558
640.768	343.394
643.66	124.25
646.553	80.8447
649.446	9.97852
652.338	8.68555
655.231	84.2168
658.124	93.5566
661.016	46.5615
663.909	31.0205
666.802	4.40332
669.695	20.9844
672.587	30.626
675.48	56.0391
678.373	65.4277
681.265	84.626
684.158	12.8833
687.051	73.5806
689.943	145.156
692.836	55.6103
695.729	136.447
698.622	188.649
701.514	205.936
704.407	271.571
707.3	435.616
710.192	750.193
713.085	1184.6
715.978	2313.92
718.87	2339.32
721.763	1410.41
724.656	604.009
727.549	266.881
730.441	172.733
733.334	82.772
736.227	125.679
739.119	79.9458
742.012	59.0474
744.905	22.7568
747.797	49.3721
750.69	46.5757
753.583	121.775
756.476	19.2402
759.368	39.2056
762.261	25.7661
765.154	1.48731
768.046	23.0635
770.939	95.9634
773.832	2.01465
776.724	66.2046
779.617	21.8008
782.51	12.7393
785.403	66.6182
788.295	55.9522
791.188	97.8174
794.081	9.19824
796.973	93.6475
799.866	44.1992
802.759	22.6553
805.652	81.9297
808.544	157.501
811.437	226.26
814.33	133.639
817.222	139.064
820.115	28.1768
823.008	22.0952
825.9	90.6719
828.793	51.6587
831.686	2.51611
834.578	60.3003
837.471	75.3481
840.364	53.0635
843.257	8.06299
846.149	68.9175
849.042	16.9185
851.935	83.9683
854.827	28.5039
857.72	6.65088
860.613	12.6065
863.505	2.94434
866.398	38.5337
869.291	25.1587
872.184	18.541
875.076	37.6875
877.969	72.8574
880.862	215.567
883.754	201.257
886.647	49.0132
889.54	3.1958
892.432	11.2036
895.325	14.3032
898.218	4.34033
901.111	32.3115
904.003	14.2744
906.896	24.3223
909.789	35.083
912.681	95.3936
915.574	70.814
918.467	60.0298
921.359	78.1338
924.252	54.7334
927.145	86.1768
930.038	64.501
932.93	159.718
935.823	89.5776
938.716	80.7598
941.608	169.922
944.501	200.383
947.394	373.453
950.286	485.606
953.179	576.491
956.072	752.012
958.965	1990.96
961.857	7807.37
964.75	20324.7
967.643	41370.4
970.535	7773.05
973.428	1938.83
976.321	997.364
979.214	638.495
982.106	486.381
984.999	275.625
987.892	213.268
990.784	144.774
993.677	98.1821
996.57	58.6103
999.462	11.3579
1002.36	70.3296
1005.25	42.4253
1008.14	73.6523
1011.03	47.7993
1013.93	21.8877
1016.82	3.0957
1019.71	19.0723
1022.6	14.3828
1025.5	8.92188
1028.39	1.2749
1031.28	20.498
1034.17	19.6201
1037.07	13.4829
1039.96	33.3794
1042.85	30.6592
1045.75	19.8198
1048.64	19.2339
1051.53	16.792
1054.42	52.9976
1057.32	57.6367
1060.21	117.797
1063.1	168.484
1065.99	369.919
1068.89	992.98
1071.78	1383.34
1074.67	321.828
1077.57	228.618
1080.46	277.669
1083.35	427.15
1086.24	355.097
1089.14	612.11
1092.03	1113.22
1094.92	2390.66
1097.81	5188.02
1100.71	9530.46
1103.6	12278.7
1106.49	26921
1109.38	41135.2
1112.28	8362.1
1115.17	2104.73
1118.06	925.794
1120.96	581.178
1123.85	485.636
1126.74	711.757
1129.63	1627.96
1132.53	3880.65
1135.42	6843.35
1138.31	3086.28
1141.2	613.891
1144.1	158.737
1146.99	70.0308
1149.88	7.51807
1152.78	3.91846
1155.67	99.4678
1158.56	54.8115
1161.45	40.1514
1164.35	50.5605
1167.24	122.13
1170.13	106.092
1173.02	227.044
1175.92	205.43
1178.81	287.166
1181.7	279.992
1184.6	381.883
1187.49	406.036
1190.38	506.047
1193.27	518.568
1196.17	532.905
1199.06	510.863
1201.95	518.388
1204.84	467.176
1207.74	406.861
1210.63	340.948
1213.52	299.697
1216.41	211.556
1219.31	184.326
1222.2	167.863
1225.09	152.713
1227.99	121.594
1230.88	79.2803
1233.77	34.4736
1236.66	43.2544
1239.56	11.9121
1242.45	89.5933
1245.34	79.5264
1248.23	130.941
1251.13	19.9863
1254.02	99.8354
1256.91	48.1216
1259.81	0.814453
1262.7	25.2358
1265.59	69.332
1268.48	10.8296
1271.38	0
