Measurement: Raman, 532 nm, unoriented, Raman Data Processed
Mineral: Tyrolite
Rruff sample: R050571
Ideal chemistry: Ca_2_Cu^2+^_9_(As^5+^O_4_)_4_(CO_3_)(OH)_8_11H_2_O
Locality: Penamellera, Spain
Source: University of Arizona Mineral Museum
Description: Pale blue foliated coating, tyrolite-2M polytype
Measured chemistry: Ca_1.00_(Cu_4.95_Fe_0.03_Zn_0.02_)_Σ=5_(As_1.00_O_4_)_2_(CO_3_)(OH)_4_·6H_2_O
Raman shift (cm-1)	intensity
109.918	0
113.293	14.4237
116.667	4.86159
120.042	39.6411
123.417	145.707
126.792	216.34
130.167	305.719
133.542	439.991
136.916	553.272
140.291	649.666
143.666	734.651
147.041	848.6
150.416	896.443
153.791	874.613
157.165	815.61
160.54	798.757
163.915	805.812
167.29	780.628
170.665	706.752
174.039	627.679
177.414	566.958
180.789	498.558
184.164	440.259
187.539	410.477
190.913	385.846
194.288	357.579
197.663	322.121
201.038	260.424
204.413	186.596
207.788	129.866
211.162	85.3734
214.537	52.4699
217.912	31.0605
221.287	13.3075
224.662	5.65729
228.036	3.21698
231.411	7.8526
234.786	8.4447
238.161	4.30304
241.536	10.6271
244.911	24.4128
248.286	30.8108
251.66	44.0774
255.035	48.7644
258.41	58.7941
261.785	63.4713
265.16	66.4702
268.534	48.7401
271.909	31.2568
275.284	18.942
278.659	7.95825
282.034	0.017944
285.409	10.0763
288.783	9.39587
292.158	10.1301
295.533	12.7362
298.908	3.14563
302.283	0.655273
305.657	19.1783
309.032	16.5909
312.407	28.6271
315.782	38.6271
319.157	50.8967
322.531	60.2351
325.906	75.1929
329.281	99.7893
332.656	131.029
336.031	162.78
339.406	194.553
342.781	235.283
346.155	295.071
349.53	377.312
352.905	476.433
356.28	531.311
359.655	545.138
363.029	495.549
366.404	433.195
369.779	381.045
373.154	358.839
376.529	377.486
379.904	416.316
383.278	422.662
386.653	395.978
390.028	336.732
393.403	276.724
396.778	237.283
400.152	208.769
403.527	183.54
406.902	176.09
410.277	166.495
413.652	166.372
417.026	145.826
420.401	104.186
423.776	55.4528
427.151	14.0841
430.526	9.33673
433.901	19.3724
437.276	9.47229
440.65	9.9566
444.025	46.7357
447.4	85.7988
450.775	126.351
454.15	166.525
457.524	195.112
460.899	188.959
464.274	161.548
467.649	131.933
471.024	108.706
474.399	94.7618
477.773	91.691
481.148	92.4211
484.523	107.071
487.898	128.224
491.273	165.791
494.647	196.129
498.022	261.666
501.397	318.036
504.772	355.226
508.147	340.076
511.522	303.673
514.896	265.508
518.271	209.549
521.646	162.273
525.021	119.465
528.396	84.7051
531.77	54.0234
535.145	42.5197
538.52	26.7775
541.895	18.9291
545.27	12.972
548.644	1.75757
552.019	0.54303
555.394	1.29877
558.769	2.82379
562.144	6.15955
565.519	6.2771
568.894	0.922974
572.268	0.3703
575.643	3.52985
579.018	0.281372
582.393	9.68109
585.768	10.7108
589.142	17.9332
592.517	15.1867
595.892	20.473
599.267	22.265
602.642	24.3759
606.016	26.543
609.391	28.5442
612.766	30.7408
616.141	34.0191
619.516	28.0708
622.891	28.8135
626.265	28.8857
629.64	29.7906
633.015	26.6356
636.39	27.0358
639.765	30.5856
643.139	32.0734
646.514	36.0994
649.889	34.0401
653.264	34.8008
656.639	33.4793
660.014	35.2418
663.389	31.8652
666.763	31.655
670.138	29.7805
673.513	29.4733
676.888	30.7717
680.263	23.1819
683.637	27.8574
687.012	26.027
690.387	25.7898
693.762	24.3218
697.137	27.7586
700.511	22.4795
703.886	21.3213
707.261	20.9774
710.636	16.753
714.011	12.8679
717.386	12.5237
720.76	8.39111
724.135	6.25507
727.51	1.84717
730.885	0.041809
734.26	5.01227
737.635	6.72217
741.009	10.1839
744.384	11.8459
747.759	10.5691
751.134	8.87793
754.509	1.64008
757.884	7.49414
761.258	17.657
764.633	42.0054
768.008	80.0729
771.383	129.703
774.758	203.618
778.132	301.312
781.507	452.435
784.882	660.894
788.257	931.607
791.632	1233.31
795.006	1520.41
798.381	1756.53
801.756	1859.25
805.131	1746.81
808.506	1510.14
811.881	1293.81
815.255	1169.96
818.63	1106.73
822.005	1074.65
825.38	1113.09
828.755	1217.47
832.13	1372.21
835.504	1546.49
838.879	1703.87
842.254	1843.44
845.629	1877.41
849.004	1716.42
852.378	1368.36
855.753	1026.73
859.128	740.055
862.503	480.368
865.878	299.622
869.253	184.706
872.627	130.129
876.002	107.572
879.377	99.8173
882.752	103.042
886.127	90.4318
889.501	68.7712
892.876	35.9661
896.251	16.5003
899.626	1.12976
903.001	12.6285
906.376	16.8346
909.75	16.5346
913.125	8.86499
916.5	4.31464
919.875	0.885986
923.25	7.80124
926.625	17.6952
929.999	23.4074
933.374	32.5517
936.749	38.5303
940.124	42.5063
943.499	36.1584
946.873	38.3383
950.248	35.5276
953.623	33.9127
956.998	31.6978
960.373	28.5134
963.748	19.8716
967.122	13.4061
970.497	5.10879
973.872	3.73596
977.247	3.79721
980.622	3.30219
983.996	2.63413
987.371	6.12714
990.746	2.96759
994.121	2.67007
997.496	2.2124
1000.87	3.82956
1004.25	8.82428
1007.62	14.2721
1011	23.8385
1014.37	33.3567
1017.75	44.4121
1021.12	57.5882
1024.49	61.9448
1027.87	65.0097
1031.24	61.8332
1034.62	60.9278
1037.99	52.5012
1041.37	48.1414
1044.74	48.7142
1048.12	52.5768
1051.49	74.5427
1054.87	64.1689
1058.24	39.9961
1061.62	24.3362
1064.99	24.0227
1068.37	14.9487
1071.74	10.5531
1075.12	9.75851
1078.49	6.55695
1081.87	3.32025
1085.24	4.3374
1088.62	2.63028
1091.99	3.58035
1095.37	1.59436
1098.74	2.81622
1102.12	0.079742
1105.49	0.182495
1108.87	1.46191
1112.24	2.13361
1115.62	0.174377
1118.99	2.14462
1122.36	0.972351
1125.74	1.1575
1129.11	1.0726
1132.49	1.32434
1135.86	1.64362
1139.24	2.40088
1142.61	3.21135
1145.99	0.036438
1149.36	4.42087
1152.74	3.71826
1156.11	3.77341
1159.49	1.16067
1162.86	2.96928
1166.24	1.211
1169.61	3.05144
1172.99	2.68613
1176.36	2.8391
1179.74	0.675247
1183.11	0.317108
1186.49	1.43996
1189.86	1.16809
1193.23	3.00226
1196.61	0.579498
1199.98	3.80261
1203.36	2.80826
1206.73	3.85637
1210.11	1.257
1213.48	5.16034
1216.86	3.94022
1220.23	4.85245
1223.61	4.36113
1226.98	2.14746
1230.36	2.61943
1233.73	2.18442
1237.11	3.09712
1240.48	0.936768
1243.86	3.05043
1247.23	1.87582
1250.61	2.77412
1253.98	3.23427
1257.36	1.37476
1260.73	1.66025
1264.11	2.24374
1267.48	2.64513
1270.86	2.28142
1274.23	4.13326
1277.61	3.01161
1280.98	0.88208
1284.36	0.888321
1287.73	7.52332
1291.11	3.94705
1294.48	4.08891
1297.86	1.36693
1301.23	0.020538
