Measurement: Raman, 514 nm, unoriented, Raman Data Processed
Mineral: Tyrolite
Rruff sample: R050231
Ideal chemistry: Ca_2_Cu^2+^_9_(As^5+^O_4_)_4_(CO_3_)(OH)_8_11H_2_O
Locality: Tyrol, Austria
Source: Marcus Origlieri
Description: Thin green scaly crystals
Measured chemistry: (Ca_0.80_Fe^2+^_0.20_)_Σ=1_(Cu_4.86_Zn_0.11_[box]_0.03_)_Σ=5_((As_0.96_S_0.03_P_0.01_)_Σ=1_O4)_2_(CO_3_)(OH)_4_·6H_2_O
Raman shift (cm-1)	intensity
148.942	0
153.096	48.641
157.247	64.876
161.396	426.792
165.544	786.815
169.689	1049.8
173.833	1215.32
177.974	1224.5
182.114	991.654
186.251	1190.99
190.387	1305.18
194.52	1621.65
198.652	1462.59
202.782	1378.8
206.909	1278.02
211.035	648.524
215.159	147.24
219.281	47.63
223.4	53.317
227.518	71.176
231.634	51.51
235.748	24.971
239.86	162.561
243.97	304.488
248.079	414.282
252.185	585.475
256.289	745.542
260.391	986.335
264.492	975.781
268.59	926.048
272.687	667.127
276.781	539.587
280.874	408.645
284.964	281.886
289.053	328.761
293.14	378.276
297.225	442.597
301.308	544.498
305.389	787.862
309.468	877.405
313.545	918.985
317.62	917.683
321.693	1006.14
325.765	1044.89
329.834	1260.6
333.902	1483.19
337.967	1721.36
342.031	2037.52
346.093	2565.96
350.153	3470.51
354.21	4845.09
358.267	5011
362.321	4926
366.373	4467.72
370.423	3938.33
374.471	3837.38
378.518	3985.38
382.563	4154.08
386.605	4011.64
390.646	3580.67
394.685	3196.19
398.722	2844.34
402.757	2647.6
406.79	2398.83
410.821	2421.3
414.851	2470.89
418.878	2313.25
422.904	1967.63
426.927	1745.07
430.949	1532.75
434.969	1488.55
438.987	1543.27
443.003	1574.97
447.018	1895.06
451.03	2291.86
455.041	2756.76
459.049	3677.45
463.056	4626.03
467.061	3809.42
471.064	2875.86
475.065	2315.65
479.064	2066.93
483.062	1978.29
487.057	1929.84
491.051	2020.87
495.043	2324.62
499.032	2689.74
503.02	3162.88
507.007	3335.29
510.991	2889.25
514.973	2573.77
518.954	2168.92
522.933	1754.7
526.91	1347.13
530.885	1095.2
534.858	853.913
538.829	693.321
542.799	507.534
546.766	396.683
550.732	306.89
554.696	242.118
558.658	143.29
562.618	121.267
566.576	151.916
570.533	50.18
574.488	1.999
578.44	3.717
582.391	3.914
586.341	7.126
590.288	39.805
594.233	62.722
598.177	69.347
602.119	56.776
606.059	77.016
609.997	57.421
613.933	48.527
617.868	12.312
621.801	48.618
625.731	10.552
629.66	44.759
633.588	16.581
637.513	45.186
641.437	17.375
645.358	16.72
649.278	19.488
653.196	59.964
657.113	156.101
661.027	87.999
664.94	72.673
668.851	77.336
672.76	104.403
676.667	57.481
680.572	103.378
684.476	140.103
688.378	145.663
692.278	160.07
696.176	155.333
700.072	193.464
703.967	177.467
707.86	269.829
711.751	257.574
715.64	348.093
719.527	378.627
723.413	384.067
727.297	402.017
731.179	467.073
735.059	501.199
738.937	564.623
742.814	564.393
746.689	722.74
750.562	722.013
754.433	887.138
758.303	1098.86
762.17	1211.87
766.036	1420.73
769.901	1839.28
773.763	2419.64
777.624	3028.38
781.482	4144.48
785.339	5743.19
789.195	7837.95
793.048	10571.1
796.9	13480.6
800.75	15812.5
804.598	16417.7
808.445	14715.8
812.289	12845.5
816.132	11669.6
819.973	11089.3
823.813	11181.4
827.65	11850.8
831.486	12812.3
835.32	14055.2
839.152	15300.3
842.983	16715.8
846.812	17597.7
850.639	16268.2
854.464	12948
858.288	9909.83
862.11	7186.98
865.93	5000.42
869.748	3789.19
873.564	3089.33
877.379	2788.82
881.192	2759.66
885.004	2659.88
888.813	2425.54
892.621	1936.68
896.427	1480.32
900.232	1174.44
904.034	969.078
907.835	850.275
911.634	738.027
915.432	598.279
919.227	530.116
923.021	517.353
926.813	517.103
930.604	519.245
934.393	445.782
938.18	426.694
941.965	408.989
945.749	394.709
949.53	314.895
953.311	244.151
957.089	110.628
960.866	161.515
964.641	83.201
968.414	120.16
972.185	75.066
975.955	30.206
979.723	27.73
983.49	186.888
987.254	209.664
991.017	220.349
994.779	98.583
998.538	69.729
1002.3	55.325
1006.05	17.818
1009.81	19.815
1013.56	102.231
1017.31	246.02
1021.06	281.498
1024.81	404.461
1028.55	333.011
1032.3	398.737
1036.04	346.005
1039.78	344.656
1043.52	290.718
1047.26	295.329
1050.99	471.505
1054.73	586.605
1058.46	407.116
1062.19	349.238
1065.92	306.937
1069.65	351.119
1073.37	337.881
1077.1	262.887
1080.82	178.054
1084.54	121.874
1088.26	80.526
1091.97	46.227
1095.69	44.403
1099.4	2.192
1103.12	22.912
1106.83	69.454
1110.54	35.198
1114.24	7.032
1117.95	11.932
1121.65	17.384
1125.35	49.038
1129.06	7.763
1132.75	21.652
1136.45	30.665
1140.15	16.344
1143.84	44.631
1147.53	9.97
1151.22	0.482
1154.91	28.504
1158.6	17.743
1162.28	62.961
1165.97	29.386
1169.65	27.546
1173.33	26.332
1177.01	51.191
1180.69	26.814
1184.36	50.32
1188.04	45.073
1191.71	61.793
1195.38	68.388
1199.05	34.189
1202.71	85.827
1206.38	96.073
1210.04	52.067
1213.71	120.789
1217.37	140.252
1221.03	133.46
1224.68	97.438
1228.34	129.166
1231.99	125.651
1235.65	135.893
1239.3	120.89
1242.95	124.52
1246.59	101.658
1250.24	159.95
1253.88	104.301
1257.53	77.735
1261.17	93.364
1264.81	95.454
1268.45	111.872
1272.08	112.575
1275.72	104.935
1279.35	88.27
1282.98	74.048
1286.61	110.735
1290.24	76.019
1293.87	78.327
1297.49	88.758
1301.11	85.596
1304.73	52.723
1308.36	85.264
1311.97	264.116
1315.59	121.667
1319.2	37.711
1322.82	46.931
1326.43	108.403
1330.04	126.866
1333.65	99.926
1337.26	69.077
1340.86	154.346
1344.47	45.879
1348.07	138.627
1351.67	125.752
1355.27	157.253
1358.87	151.916
1362.46	102.138
1366.06	154.93
1369.65	122.785
1373.24	161.05
1376.83	154.928
1380.42	149.755
1384	136.856
1387.59	82.399
1391.17	95.98
1394.75	106.952
1398.33	51.511
1401.91	105.878
1405.49	66.136
1409.06	70.121
1412.64	138.33
1416.21	23.7
1419.78	100.154
1423.35	51.344
1426.91	73.144
1430.48	21.761
1434.05	54.257
1437.61	72.845
1441.17	76.614
1444.73	70.385
1448.29	34.981
1451.84	36.685
1455.4	103.304
1458.95	84.033
1462.5	71.926
1466.05	27.096
1469.6	2.635
1473.15	44.817
1476.69	87.521
1480.24	45.406
1483.78	91.485
1487.32	24.798
1490.86	123.44
1494.39	94.49
1497.93	71.635
1501.46	54.384
1505	27.302
1508.53	65.905
1512.06	83.839
1515.59	12.062
1519.11	36.748
1522.64	0
