Measurement: Raman, 532 nm, unoriented, Raman Data Processed
Mineral: Tyrolite
Rruff sample: R050231
Ideal chemistry: Ca_2_Cu^2+^_9_(As^5+^O_4_)_4_(CO_3_)(OH)_8_11H_2_O
Locality: Tyrol, Austria
Source: Marcus Origlieri
Description: Thin green scaly crystals
Measured chemistry: (Ca_0.80_Fe^2+^_0.20_)_Σ=1_(Cu_4.86_Zn_0.11_[box]_0.03_)_Σ=5_((As_0.96_S_0.03_P_0.01_)_Σ=1_O4)_2_(CO_3_)(OH)_4_·6H_2_O
Raman shift (cm-1)	intensity
139.065	0
141.958	1.39553
144.85	2.47081
147.743	5.10772
150.636	7.76991
153.529	10.5273
156.421	9.62143
159.314	7.1849
162.207	10.2199
165.099	10.7181
167.992	13.0399
170.885	14.0006
173.777	13.7413
176.67	13.6827
179.563	15.5024
182.456	14.2488
185.348	12.732
188.241	11.318
191.134	8.42808
194.026	6.94615
196.919	5.26791
199.812	4.81927
202.704	3.29243
205.597	0.812378
208.49	0.838249
211.382	0.033058
214.275	0.374504
217.168	0.078972
220.061	0.012634
222.953	0.189423
225.846	0.486351
228.739	0.937889
231.631	2.05952
234.524	3.04833
237.417	4.08399
240.31	6.24996
243.202	6.54814
246.095	8.31275
248.988	8.92519
251.88	12.8647
254.773	13.3574
257.666	14.0567
260.558	15.1809
263.451	15.305
266.344	13.993
269.236	13.0778
272.129	10.6324
275.022	8.01559
277.915	6.95545
280.807	5.03058
283.7	3.05139
286.593	1.96984
289.485	0.41304
292.378	0.947517
295.271	0.815536
298.163	0.405296
301.056	0.303436
303.949	0.879745
306.842	1.98747
309.734	2.24778
312.627	2.2722
315.52	1.44038
318.412	0.570244
321.305	0.855858
324.198	0.135818
327.091	0.719162
329.983	2.21325
332.876	2.19495
335.769	4.33106
338.661	4.33043
341.554	7.21403
344.447	9.03373
347.339	13.1103
350.232	16.3558
353.125	21.1349
356.017	24.0596
358.91	27.1806
361.803	26.5284
364.696	25.9943
367.588	22.6964
370.481	20.8714
373.374	17.8374
376.266	17.9127
379.159	17.8838
382.052	18.7703
384.945	17.17
387.837	15.9175
390.73	14.1728
393.623	11.0737
396.515	9.87622
399.408	9.31483
402.301	7.9035
405.193	7.00327
408.086	7.51347
410.979	8.39282
413.872	8.94497
416.764	9.57421
419.657	6.64607
422.55	5.24059
425.442	2.77967
428.335	0.574097
431.228	0.683784
434.12	0.102768
437.013	1.83662
439.906	0.436119
442.798	1.81949
445.691	2.88774
448.584	6.16151
451.477	7.85971
454.369	10.853
457.262	13.0002
460.155	14.5393
463.047	14.9619
465.94	14.1002
468.833	13.3365
471.726	12.6076
474.618	12.254
477.511	11.98
480.404	11.6898
483.296	12.1552
486.189	12.4992
489.082	14.4616
491.974	18.2194
494.867	19.2909
497.76	22.528
500.652	24.6962
503.545	27.8
506.438	29.0334
509.331	27.2756
512.223	25.751
515.116	23.2924
518.009	20.5745
520.901	17.6712
523.794	14.0348
526.687	11.534
529.58	9.7722
532.472	6.88612
535.365	5.57581
538.258	4.69541
541.15	3.00791
544.043	1.66976
546.936	0.772408
549.828	1.18416
552.721	0.131844
555.614	0.118534
558.506	0.870586
561.399	0.292233
564.292	0.437176
567.185	0.005211
570.077	0.042816
572.97	0.154247
575.863	0.567772
578.755	0.572376
581.648	1.06086
584.541	1.16339
587.433	0.433861
590.326	1.90166
593.219	1.61788
596.111	1.83472
599.004	2.1285
601.897	3.21465
604.79	2.85398
607.682	3.31294
610.575	3.2135
613.468	3.32771
616.36	3.45959
619.253	3.463
622.146	3.81575
625.038	3.38651
627.931	3.36346
630.824	2.83302
633.717	2.78202
636.609	3.93614
639.502	2.71608
642.395	3.06587
645.287	3.52595
648.18	3.76525
651.073	3.77129
653.966	3.20827
656.858	3.18159
659.751	3.13446
662.644	2.76216
665.536	3.13885
668.429	3.39632
671.322	3.08062
674.214	2.74462
677.107	3.58119
680	3.52589
682.893	3.40615
685.785	3.38574
688.678	3.09334
691.571	2.98336
694.463	2.75639
697.356	2.68933
700.249	2.24397
703.141	2.40049
706.034	1.90363
708.927	1.63274
711.819	1.88871
714.712	1.75925
717.605	1.1581
720.498	0.584538
723.39	0.563095
726.283	0.539589
729.176	0.074783
732.068	0.218586
734.961	0.956619
737.854	1.44753
740.746	1.21561
743.639	0.752945
746.532	1.61651
749.425	0.305542
752.317	1.04658
755.21	0.060093
758.103	0.984314
760.995	1.4688
763.888	3.50243
766.781	5.44723
769.673	8.41597
772.566	12.0334
775.459	16.1223
778.352	23.4503
781.244	32.8895
784.137	43.0454
787.03	56.0928
789.922	70.8238
792.815	82.7909
795.708	98.2166
798.601	108.272
801.493	115.297
804.386	118.046
807.279	113.8
810.171	106.887
813.064	98.8594
815.957	96.5803
818.849	95.6374
821.742	97.0552
824.635	100.171
827.528	106.003
830.42	113.037
833.313	120.856
836.206	131.719
839.098	143.374
841.991	150.78
844.884	155.505
847.776	154.524
850.669	143.503
853.562	124.961
856.455	103.171
859.347	80.3857
862.24	60.6853
865.133	45.1703
868.025	34.3012
870.918	27.5835
873.811	22.4548
876.703	18.0045
879.596	15.6708
882.489	12.4665
885.381	10.4366
888.274	8.14926
891.167	6.54746
894.06	4.1695
896.952	1.29665
899.845	0.315918
902.738	0.345654
905.63	0.709057
908.523	1.60075
911.416	2.02369
914.308	1.17157
917.201	1.20578
920.094	0.437469
922.987	0.413849
925.879	0.410126
928.772	0.894485
931.665	1.64567
934.557	1.53699
937.45	2.90159
940.343	2.70754
943.236	3.11993
946.128	2.89907
949.021	2.8453
951.914	3.2485
954.806	2.69772
957.699	2.82977
960.592	3.21033
963.484	3.60822
966.377	2.6336
969.27	2.0215
972.163	1.68341
975.055	0.797539
977.948	1.47341
980.841	0.781368
983.733	0.222054
986.626	0.799725
989.519	1.33295
992.411	0.105568
995.304	1.20003
998.197	0.542793
1001.09	1.07412
1003.98	0.706974
1006.88	1.20307
1009.77	0.37842
1012.66	1.39467
1015.55	1.95155
1018.45	2.34504
1021.34	2.74466
1024.23	3.16746
1027.12	2.99226
1030.02	3.06754
1032.91	2.96457
1035.8	2.54185
1038.69	2.80282
1041.59	2.17893
1044.48	2.69154
1047.37	2.30275
1050.27	1.94566
1053.16	2.33626
1056.05	2.30195
1058.94	2.05965
1061.84	1.87582
1064.73	1.64091
1067.62	1.97764
1070.51	2.18542
1073.41	1.71802
1076.3	2.03701
1079.19	1.72032
1082.09	2.67127
1084.98	1.46039
1087.87	1.66858
1090.76	1.33438
1093.66	1.23581
1096.55	0.487919
1099.44	0.792028
1102.33	0.45656
1105.23	0.334946
1108.12	0.401712
1111.01	0.258314
1113.9	0.01503
1116.8	0.372974
1119.69	0.277643
1122.58	0.179821
1125.47	0.552704
1128.37	0.11396
1131.26	0.232826
1134.15	0.411406
1137.05	0.690304
1139.94	0.048811
1142.83	0.264479
1145.72	0.477236
1148.62	0.873138
1151.51	0.717766
1154.4	0.345974
1157.3	0.289524
1160.19	0.776184
1163.08	0.94223
1165.97	0.652246
1168.87	0.965185
1171.76	0.799654
1174.65	0.6455
1177.54	0.777748
1180.44	0.883947
1183.33	0.573326
1186.22	0.36339
1189.12	0.535513
1192.01	0.656096
1194.9	0.528419
1197.79	0.955982
1200.69	0.845137
1203.58	0.232548
1206.47	0.037867
1209.36	0.702074
1212.26	0.166916
1215.15	0.648642
1218.04	0.538774
1220.93	0.65727
1223.83	0.374346
1226.72	0.271271
1229.61	0.292843
1232.51	0.211697
1235.4	0.603529
1238.29	0.023056
1241.18	0.717152
1244.08	0.279696
1246.97	0.387716
1249.86	0.599373
1252.75	0.432068
1255.65	0.373009
1258.54	0.280725
1261.43	0.369984
1264.33	0.642397
1267.22	0.498581
1270.11	0.045109
1273	0.320807
1275.9	0.209457
1278.79	0.387489
1281.68	0.261082
