Measurement: Raman, 780 nm, unoriented, Raman Data Processed
Mineral: Tyrrellite
Rruff sample: R060481
Ideal chemistry: Cu(Co,Ni)_2_Se_4_
Locality: Eagle Claims, near Hal Lake, Beaverlodge Lake area, Saskatchewan, Canada
Source: Michael Scott
Description: Gray metallic bleb
Measured chemistry: Cu_1.00_(Co_1.37_Ni_0.63_)_Î£=2_Se_4.00_
Raman shift (cm-1)	intensity
123.984	0
127.358	0.879814
130.733	5.17416
134.108	5.84435
137.483	13.0098
140.858	21.6443
144.232	33.965
147.607	31.8427
150.982	20.0114
154.357	11.3152
157.732	5.56153
161.107	2.05758
164.481	0.603456
167.856	0.387108
171.231	0.166021
174.606	1.21191
177.981	1.66828
181.355	4.49649
184.73	6.44747
188.105	2.62923
191.48	0.915621
194.855	1.44079
198.229	0.848579
201.604	2.33639
204.979	3.10265
208.354	3.62979
211.729	5.33842
215.103	6.83726
218.478	6.13722
221.853	5.10579
225.228	5.11623
228.603	4.6288
231.978	3.71296
235.352	1.27615
238.727	0.670012
242.102	1.09041
245.477	2.45066
248.852	2.07159
252.226	2.44221
255.601	1.72108
258.976	0.926177
262.351	1.13
265.726	1.37291
269.101	1.49232
272.475	1.89106
275.85	1.3611
279.225	0.60503
282.6	0.268532
285.975	0.110101
289.349	0.30487
292.724	0.343836
296.099	0.051103
299.474	0.020225
302.849	0.137542
306.224	0.246534
309.598	0.431536
312.973	0.939465
316.348	0.178552
319.723	0.293325
323.098	0.607631
326.472	0.493606
329.847	0.731772
333.222	1.0519
336.597	0.990736
339.972	0.556948
343.346	0.553487
346.721	0.671599
350.096	0.48167
353.471	0.627656
356.846	0.430409
360.221	0.143844
363.595	0.125867
366.97	0.347417
370.345	0.212502
373.72	0.334531
377.095	0.624023
380.469	0.259672
383.844	0.373332
387.219	0.487719
390.594	0.283862
393.969	0.147801
397.344	0.123825
400.718	0.181807
404.093	0.270936
407.468	0.391323
410.843	0.259306
414.217	0.183941
417.592	0.563852
420.967	0.244843
424.342	0.19723
427.717	0.179193
431.092	0.089139
434.466	0.065068
437.841	0.298282
441.216	0.356947
444.591	0.287049
447.966	0.028423
451.341	0.457771
454.715	0.123639
458.09	0.16469
461.465	0.038801
464.84	0.190092
468.215	0.198127
471.589	0.533884
474.964	0.376142
478.339	0.022331
481.714	0.255329
485.089	0.428246
488.463	0.44441
491.838	0.397408
495.213	0.574012
498.588	0.372631
501.963	0.239286
505.337	0.284772
508.712	0.10026
512.087	0.512559
515.462	0.252811
518.837	0.367333
522.212	0.485178
525.586	0.441638
528.961	0.476886
532.336	0.119197
535.711	0.7872
539.086	0.828124
542.46	0.378706
545.835	0.272684
549.21	0.644164
552.585	0.564837
555.96	0.402248
559.335	0.304412
562.709	0.478741
566.084	0.141103
569.459	0.013708
572.834	0.119454
576.209	0.266986
579.583	0.175252
582.958	0.446603
586.333	0.292435
589.708	0.300086
593.083	0.04386
596.457	0.201366
599.832	0.22076
603.207	0.076643
606.582	0.331993
609.957	0.459758
613.332	0.252811
616.706	0.40975
620.081	0.344827
623.456	0.529861
626.831	0.278532
630.206	0.229828
633.58	0.444733
636.955	0.479599
640.33	0.171746
643.705	0.402975
647.08	0.340485
650.455	0.148025
653.829	0.409243
657.204	0.508753
660.579	0.381004
663.954	0.398229
667.329	0.031334
670.703	0.339582
674.078	0.388592
677.453	0.422649
680.828	0.328498
684.203	0.318871
687.577	0.07901
690.952	0.374777
694.327	0.34698
697.702	0.019439
701.077	0.489541
704.452	0.019855
707.826	0.324366
711.201	0.273823
714.576	0.293711
717.951	0.14974
721.326	0.19541
724.7	0.397188
728.075	0.05984
731.45	0.144158
734.825	0.478436
738.2	0.180446
741.574	0.206274
744.949	0.181599
748.324	0.29081
751.699	0.140759
755.074	0.274938
758.449	0.096434
761.823	0.375259
765.198	0.281533
768.573	0.447589
771.948	0.123607
775.323	0.396731
778.697	0.864994
782.072	0.575605
785.447	0.118271
788.822	0.276419
792.197	0.096878
795.572	0.27094
798.946	0.250992
802.321	0.218647
805.696	0.309285
809.071	0.156702
812.446	0.087072
815.82	0.089773
819.195	0.275503
822.57	0.301034
825.945	0.153058
829.32	0.106979
832.694	0.110946
836.069	0.41905
839.444	0.536501
842.819	0.310209
846.194	0.216997
849.569	0.322221
852.943	0.214569
856.318	0.224873
859.693	0.203156
863.068	0.116111
866.443	0.196634
869.817	0.228234
873.192	0.111783
876.567	0.250478
879.942	0.321178
883.317	0.25509
886.692	0.259455
890.066	0.420644
893.441	0.641777
896.816	0.416659
900.191	0.197699
903.566	0.088491
906.94	0.236529
910.315	0.600818
913.69	0.134037
917.065	0.174163
920.44	0.284082
923.814	0.239892
927.189	0.425997
930.564	0.174132
933.939	0.382
937.314	0.596944
940.689	0.207725
944.063	0.198977
947.438	0.194808
950.813	0.479949
954.188	0.131695
957.563	0.359271
960.937	0.156805
964.312	0.392563
967.687	0.329805
971.062	0.538139
974.437	0.456547
977.812	0.480017
981.186	0.560697
984.561	0.554781
987.936	0.123922
991.311	0.208046
994.686	0.413636
998.06	0.398507
1001.43	0.309855
1004.81	0.364964
1008.18	0.002332
1011.56	0.204657
1014.93	0.07611
1018.31	0.112277
1021.68	0.229222
1025.06	0.264528
1028.43	0.450245
1031.81	0.246248
1035.18	0.177188
1038.56	0.4814
1041.93	0.207191
1045.31	0.228912
1048.68	0.274714
1052.06	0.25767
1055.43	0.548637
1058.81	0.33251
1062.18	0.448138
1065.56	0.750485
1068.93	0.380325
1072.31	0.100225
1075.68	0.403317
1079.06	0.578256
1082.43	0.409061
1085.81	0.244358
1089.18	0.190953
1092.56	0.242227
1095.93	0.098789
1099.31	0.423356
1102.68	0.478237
1106.05	0.053319
1109.43	0.563894
1112.8	0.312909
1116.18	0.265815
1119.55	0.15335
1122.93	0.387476
1126.3	0.235266
1129.68	0.14048
1133.05	0.309035
1136.43	0.191428
1139.8	0.31414
1143.18	0.057856
1146.55	0.087364
1149.93	0.175881
1153.3	0.043936
1156.68	0.079298
1160.05	0.321566
1163.43	0.411864
1166.8	0.16221
1170.18	0.329937
1173.55	0.282331
1176.93	0.326141
1180.3	0.436046
1183.67	0.493914
1187.05	0.257431
1190.42	0.129461
1193.8	0.245868
1197.17	0.254152
1200.55	0.608388
1203.92	0.446961
1207.3	0.152425
1210.67	0.007478
1214.05	0.281413
1217.42	0.427493
1220.8	0.201364
1224.17	0.521718
1227.55	0.273767
1230.92	0.511577
1234.3	0.225829
1237.67	0.136809
1241.05	0.069959
1244.42	0.567538
1247.8	0.664879
1251.17	0.333686
1254.55	0.173193
1257.92	0.386077
1261.3	0.317521
1264.67	0.155707
1268.05	0.580247
1271.42	0.309456
1274.8	0.079623
1278.17	0.288896
1281.55	0.040277
