Measurement: Raman, 532 nm, unoriented, Raman Data Processed
Mineral: Tyrrellite
Rruff sample: R060481
Ideal chemistry: Cu(Co,Ni)_2_Se_4_
Locality: Eagle Claims, near Hal Lake, Beaverlodge Lake area, Saskatchewan, Canada
Source: Michael Scott
Description: Gray metallic bleb
Measured chemistry: Cu_1.00_(Co_1.37_Ni_0.63_)_Î£=2_Se_4.00_
Raman shift (cm-1)	intensity
195.427	0
198.32	1.58475
201.213	10.0997
204.105	20.291
206.998	29.8104
209.891	45.5994
212.784	73.1221
215.676	111.601
218.569	115.348
221.462	66.0284
224.354	42.9733
227.247	35.382
230.14	28.948
233.032	21.0492
235.925	6.60145
238.818	0.068054
241.71	2.0852
244.603	0.659004
247.496	0.59264
250.389	3.42186
253.281	5.85945
256.174	5.50658
259.067	4.30062
261.959	3.71658
264.852	3.79574
267.745	5.63121
270.637	5.72243
273.53	5.94297
276.423	5.76661
279.316	5.30386
282.208	3.24524
285.101	1.0432
287.994	0.591854
290.886	0.287119
293.779	0.884357
296.672	0.907711
299.565	0.003952
302.457	0.217577
305.35	0.576998
308.243	0.669502
311.135	1.3713
314.028	1.59881
316.921	1.12881
319.813	0.907942
322.706	1.28601
325.599	1.33122
328.491	2.22298
331.384	1.50058
334.277	1.33947
337.17	2.23956
340.062	1.83668
342.955	2.08321
345.848	2.32137
348.74	1.95711
351.633	1.60455
354.526	1.93862
357.418	1.65184
360.311	0.932316
363.204	1.06228
366.097	0.781708
368.989	0.463087
371.882	0.494482
374.775	0.715221
377.667	0.356289
380.56	0.4485
383.453	0.518251
386.346	0.124737
389.238	0.953209
392.131	0.58427
395.024	0.214556
397.916	0.176956
400.809	0.066877
403.702	0.174711
406.594	0.694103
409.487	1.0693
412.38	1.5333
415.272	0.52518
418.165	0.148987
421.058	0.001662
423.951	0.161309
426.843	0.35482
429.736	0.5037
432.629	0.503715
435.521	0.023922
438.414	0.173081
441.307	0.322235
444.2	0.131752
447.092	0.56134
449.985	0.141773
452.878	0.657816
455.77	0.276146
458.663	0.287931
461.556	0.097713
464.448	0.316195
467.341	0.245816
470.234	0.255792
473.127	0.398921
476.019	0.237527
478.912	0.061302
481.805	0.036822
484.697	0.824688
487.59	0.725352
490.483	0.92311
493.375	0.196852
496.268	0.849995
499.161	0.682855
502.053	1.73602
504.946	1.81334
507.839	1.56144
510.732	1.1742
513.624	1.1693
516.517	1.05752
519.41	0.768976
522.302	0.673699
525.195	0.630113
528.088	0.882904
530.981	1.48247
533.873	0.978268
536.766	1.56724
539.659	1.19509
542.551	0.982482
545.444	1.26628
548.337	0.902381
551.229	0.988796
554.122	0.605449
557.015	0.789529
559.908	0.598241
562.8	0.04857
565.693	0.003459
568.586	0.113936
571.478	0.137338
574.371	0.179838
577.264	0.472672
580.156	0.124152
583.049	0.543188
585.942	0.068972
588.835	0.059603
591.727	0.249776
594.62	0.003137
597.513	0.385992
600.405	0.509918
603.298	0.804021
606.191	0.552996
609.083	0.57907
611.976	0.410364
614.869	0.814729
617.761	1.0496
620.654	0.364675
623.547	0.072295
626.44	0.625153
629.332	0.814002
632.225	0.308619
635.118	0.388942
638.01	0.283957
640.903	0.427276
643.796	0.659626
646.688	0.586218
649.581	0.104883
652.474	0.081129
655.367	0.500657
658.259	0.521277
661.152	0.738825
664.045	0.445655
666.937	0.461221
669.83	0.220654
672.723	0.243912
675.615	0.025811
678.508	0.224359
681.401	0.0806
684.294	0.545171
687.186	0.75336
690.079	0.440682
692.972	0.033827
695.864	0.490472
698.757	0.265491
701.65	0.033875
704.543	0.110183
707.435	0.222475
710.328	0.660713
713.221	0.252681
716.113	0.68327
719.006	0.486741
721.899	0.319934
724.791	0.527376
727.684	0.475238
730.577	0.630569
733.47	0.337282
736.362	0.134447
739.255	0.785033
742.148	0.40692
745.04	0.532979
747.933	0.161703
750.826	0.807618
753.718	0.325388
756.611	0.332104
759.504	0.601254
762.396	0.143899
765.289	0.643498
768.182	0.100473
771.075	0.255299
773.967	0.639948
776.86	0.362595
779.753	0.487783
782.645	0.118519
785.538	0.326686
788.431	0.866586
791.323	0.203396
794.216	0.047994
797.109	0.069794
800.002	0.082703
802.894	0.073663
805.787	0.502891
808.68	0.253799
811.572	0.36199
814.465	0.619407
817.358	0.386014
820.25	0.008325
823.143	0.64208
826.036	0.202976
828.929	0.526408
831.821	0.586511
834.714	0.209639
837.607	0.534822
840.5	0.871883
843.392	0.079976
846.285	0.653955
849.178	0.334432
852.07	0.469563
854.963	0.615866
857.856	0.375096
860.748	0.684069
863.641	0.706098
866.534	0.64226
869.427	0.418113
872.319	0.31457
875.212	0.168079
878.105	0.391697
880.997	0.024341
883.89	0.133524
886.783	0.408441
889.675	0.458122
892.568	0.29479
895.461	0.141683
898.354	0.957254
901.246	0.319116
904.139	0.54242
907.032	0.226855
909.924	0.876466
912.817	0.203114
915.71	0.960464
918.602	0.654036
921.495	0.473523
924.388	0.601356
927.28	0.27344
930.173	0.871135
933.066	0.798618
935.959	0.433388
938.851	0.380538
941.744	0.678726
944.637	0.576441
947.529	0.644293
950.422	0.047797
953.315	0.233538
956.207	0.359221
959.1	0.32365
961.993	0.03936
964.886	0.430114
967.778	0.183259
970.671	0.926152
973.564	0.403387
976.456	0.537865
979.349	0.581697
982.242	0.885097
985.135	0.269243
988.027	0.238784
990.92	0.257208
993.813	0.419266
996.705	0.514999
999.598	0.091735
1002.49	0.081665
1005.38	0.232972
1008.28	0.151853
1011.17	0.516384
1014.06	0.197473
1016.95	0.335241
1019.85	0.558041
1022.74	0.08513
1025.63	0.172538
1028.53	0.316739
1031.42	0.192397
1034.31	0.511033
1037.2	0.031303
1040.1	0.057498
1042.99	0.1376
1045.88	0.301314
1048.77	0.572999
1051.67	0.626507
1054.56	0.40166
1057.45	0.428287
1060.35	0.787842
1063.24	0.075736
1066.13	0.459088
1069.02	0.580979
1071.92	0.05877
1074.81	0.625381
1077.7	0.50837
1080.59	0.509471
1083.49	0.394795
1086.38	0.474099
1089.27	0.475841
1092.16	0.529703
1095.06	0.436938
1097.95	0.560625
1100.84	0.368175
1103.73	0.31784
1106.63	0.51732
1109.52	0.476509
1112.41	0.650097
1115.31	0.738081
1118.2	0.171111
1121.09	0.602832
1123.98	0.516529
1126.88	0.126368
1129.77	0.663109
1132.66	0.277928
1135.56	0.4797
1138.45	0.330946
1141.34	0.830722
1144.23	0.716089
1147.13	0.424438
1150.02	0.198846
1152.91	0.568896
1155.8	0.092162
1158.7	0.273957
1161.59	0.249442
1164.48	0.035826
1167.38	0.387397
1170.27	0.084353
1173.16	0.431702
1176.05	0.272033
1178.94	0.258662
1181.84	0.337613
1184.73	0.693241
1187.62	0.213428
1190.52	0.345846
1193.41	0.820688
1196.3	0.407712
1199.19	0.381298
1202.09	0.798335
1204.98	0.265539
1207.87	0.386282
1210.77	1.10761
1213.66	0.896625
1216.55	0.468101
1219.44	0.175851
1222.34	0.38059
1225.23	0.273369
1228.12	0.804299
1231.01	0.520058
1233.91	0.620433
1236.8	0.424411
1239.69	0.454727
1242.59	0.249465
1245.48	0.441675
1248.37	0.319265
1251.26	0.650506
1254.16	0.697556
1257.05	0.220804
1259.94	0.518931
1262.83	0.638452
1265.73	0.668633
1268.62	0.561607
1271.51	0.504144
1274.4	0.083463
1277.3	0.321384
1280.19	0.806035
1283.08	0.770422
1285.97	1.02303
1288.87	0.726807
1291.76	0.403065
1294.65	0.955387
1297.55	0.07689
1300.44	0.265256
