Measurement: Raman, 532 nm, unoriented, Raman Data Processed
Mineral: Tyuyamunite
Rruff sample: R070232
Ideal chemistry: Ca(UO_2_)_2_(VO_4_)_2_5-8H_2_O
Locality: Tyuya-Muyun Cu-V-U Deposit, Tyuya-Muyun Hill, Fergana Valley, Osh Oblast, Kyrgyzstan
Source: Michael Scott
Description: Yellow platy crystals and veinlets on calcite
Raman shift (cm-1)	intensity
155.929	0
158.822	0.613281
161.715	1.34228
164.607	87.3364
167.5	114.446
170.393	150.998
173.286	109.132
176.178	132.152
179.071	80.2412
181.964	84.1821
184.856	123.74
187.749	152.865
190.642	110.529
193.535	59.9458
196.427	31.1875
199.32	31.0112
202.213	34.4004
205.105	17.6104
207.998	13.2437
210.891	16.5845
213.783	16.6025
216.676	10.5977
219.569	30.4434
222.462	105.934
225.354	143.881
228.247	283.597
231.14	340.785
234.032	361.136
236.925	381.021
239.818	352.46
242.71	377.685
245.603	466.014
248.496	377.934
251.388	481.788
254.281	414.032
257.174	384.46
260.067	344.256
262.959	278.966
265.852	263.429
268.745	272.703
271.637	238.416
274.53	230.003
277.423	319.124
280.315	303.356
283.208	307.919
286.101	243.861
288.994	255.331
291.886	360.989
294.779	541.855
297.672	584.983
300.564	841.371
303.457	950.163
306.35	885.1
309.243	782.71
312.135	504.772
315.028	285.667
317.921	82.8979
320.813	7.30797
323.706	13.9535
326.599	23.5913
329.491	25.5039
332.384	123.308
335.277	316.457
338.17	478.233
341.062	724.809
343.955	787.523
346.848	1005.7
349.74	1257.94
352.633	1377.77
355.526	1688.33
358.418	2021.88
361.311	2298.73
364.204	2698.19
367.097	2841.16
369.989	2871.03
372.882	2637.76
375.775	2253.63
378.667	1820.38
381.56	1434.24
384.453	1087.4
387.346	933.906
390.238	761.78
393.131	708.39
396.024	664.412
398.916	746.25
401.809	818.139
404.702	750.443
407.594	809.545
410.487	767.147
413.38	740.619
416.272	589.364
419.165	476.021
422.058	286.906
424.951	196.81
427.843	188.23
430.736	79.3506
433.629	48.9834
436.521	12.3008
439.414	47.4429
442.307	42.3272
445.2	52.5147
448.092	18.7725
450.985	9.06006
453.878	84.8809
456.77	102.654
459.663	241.503
462.556	253.606
465.448	301.29
468.341	319.753
471.234	363.166
474.127	307.41
477.019	295.184
479.912	220.022
482.805	212.385
485.697	156.95
488.59	121.599
491.483	98.6006
494.375	12.7227
497.268	9.66504
500.161	66.1387
503.053	60.0762
505.946	86.2519
508.839	206.586
511.732	319.884
514.624	374.889
517.517	519.068
520.41	702.722
523.302	866.451
526.195	1036.99
529.088	1133.94
531.981	1080.54
534.873	995.738
537.766	868.231
540.659	726.123
543.551	516.004
546.444	396.873
549.337	348.617
552.229	297.284
555.122	275.571
558.015	327.109
560.908	366.222
563.8	393.038
566.693	502.448
569.586	438.736
572.478	483.32
575.371	557.023
578.264	515.221
581.156	419.412
584.049	316.973
586.942	290.324
589.835	250.826
592.727	143.525
595.62	113.728
598.513	101.811
601.405	91.0772
604.298	22.8545
607.191	32.4326
610.083	10.0156
612.976	39.3252
615.869	25.5615
618.762	20.3613
621.654	29.2637
624.547	78.4619
627.44	84.9785
630.332	116.338
633.225	167.331
636.118	239.586
639.01	335.56
641.903	416.194
644.796	445.844
647.689	449.205
650.581	395.338
653.474	350.507
656.367	247.314
659.259	186.003
662.152	172.505
665.045	95.7822
667.938	77.1709
670.83	7.85742
673.723	11.5918
676.616	63.9258
679.508	18.9785
682.401	14.583
685.294	41.5986
688.186	78.2695
691.079	182.043
693.972	227.814
696.865	301.674
699.757	469.007
702.65	581.611
705.543	822.856
708.435	1018.57
711.328	1339.81
714.221	1594.51
717.113	1969.06
720.006	2454.5
722.899	2965
725.792	3655.58
728.684	4527.17
731.577	5398.39
734.47	6437.07
737.362	7137.64
740.255	7845.95
743.148	8137.65
746.04	7985.36
748.933	7593.73
751.826	6928.86
754.719	6149.28
757.611	5269.33
760.504	4515.39
763.397	3830.9
766.289	3202.47
769.182	2689.97
772.075	2347.47
774.967	1939.51
777.86	1642.45
780.753	1346.37
783.646	1099.8
786.538	784.971
789.431	481.944
792.324	275.351
795.216	176.316
798.109	36.5088
801.002	31.1602
803.894	60.8486
806.787	22.2998
809.68	74.5644
812.573	140.18
815.465	185.684
818.358	542.819
821.251	750.833
824.143	931.751
827.036	1091.03
829.929	1103.8
832.822	991.398
835.714	942.328
838.607	835.844
841.5	824.337
844.392	684.097
847.285	560.081
850.178	542.006
853.07	393.072
855.963	374.451
858.856	214.757
861.749	248.568
864.641	64.96
867.534	84.3213
870.427	58.3037
873.319	30.7148
876.212	30.8682
879.105	1.92383
881.997	4.28906
884.89	10.0391
887.783	23.6875
890.676	30.1113
893.568	40.4092
896.461	77.1904
899.354	9.7998
902.246	65.1543
905.139	88.7949
908.032	139.338
910.924	134.414
913.817	155.842
916.71	76.6641
919.602	113.472
922.495	167.418
925.388	167.782
928.281	180.87
931.173	256.527
934.066	233.117
936.959	217.181
939.851	338.188
942.744	323.149
945.637	417.188
948.529	485.478
951.422	599.94
954.315	601.869
957.208	733.126
960.1	841.56
962.993	684.855
965.886	798.838
968.778	755.981
971.671	666.239
974.564	584.403
977.457	548.175
980.349	362.555
983.242	344.543
986.135	285.328
989.027	239.884
991.92	107.685
994.813	136.307
997.705	81.6523
1000.6	106.18
1003.49	99.4912
1006.38	35.1377
1009.28	73.249
1012.17	36.0772
1015.06	4.79004
1017.95	4.36035
1020.85	58.2832
1023.74	25.0918
1026.63	75.7383
1029.53	86.1953
1032.42	26.0205
1035.31	17.0254
1038.2	8.55664
1041.1	39.6172
1043.99	37.3935
1046.88	26.7461
1049.77	49.541
1052.67	118.322
1055.56	50.1602
1058.45	5.33496
1061.35	125.436
1064.24	138.996
1067.13	115.936
1070.02	92.8193
1072.92	116.723
1075.81	90.5342
1078.7	118.013
1081.59	92.4072
1084.49	82.5478
1087.38	94.1719
1090.27	115.548
1093.16	93.6562
1096.06	94.7383
1098.95	14.3174
1101.84	75.3506
1104.73	62.6592
1107.63	34.8457
1110.52	97.1885
1113.41	71.542
1116.31	110.834
1119.2	117.5
1122.09	24.8242
1124.98	60.581
1127.88	62.044
1130.77	119.699
1133.66	57.3838
1136.56	160.763
1139.45	8.73438
1142.34	51.3887
1145.23	22.7295
1148.13	43.9453
1151.02	87.0537
1153.91	1.15723
1156.8	51.4424
1159.7	16.6641
1162.59	137.874
1165.48	63.1523
1168.38	51.2236
1171.27	19.2852
1174.16	73.5469
1177.05	96.5664
1179.95	33.919
1182.84	3.63769
1185.73	43.9961
1188.62	95.8711
1191.52	65.5547
1194.41	85.5674
1197.3	21.4336
1200.19	34.6562
1203.09	57.6895
1205.98	40.5059
1208.87	1.33008
1211.77	80.4531
1214.66	35.5137
1217.55	65.3418
1220.44	112.647
1223.34	63.9473
1226.23	65.1094
1229.12	62.2188
1232.01	132.471
1234.91	83.7227
1237.8	102.189
1240.69	12.3486
1243.59	83.3106
1246.48	68.1035
1249.37	104.428
1252.26	68.5918
1255.16	79.6221
1258.05	70.0498
1260.94	97.9111
1263.83	107.643
1266.73	185.542
1269.62	58.8096
1272.51	220.828
1275.4	114.018
1278.3	128.102
1281.19	103.046
1284.08	180.988
1286.98	51.4941
1289.87	136.764
1292.76	77.1777
1295.65	68.0019
1298.55	54.1953
1301.44	105.518
1304.33	73.1504
1307.22	3.43164
