Measurement: Raman, 785 nm, unoriented, Raman Data Processed
Mineral: Tyuyamunite
Rruff sample: R060983
Ideal chemistry: Ca(UO_2_)_2_(VO_4_)_2_5-8H_2_O
Locality: Ridenour mine, Coconino, Arizona, USA
Source: Bob Jenkins
Description: Thin platy lemon yellow crystals associated with green tangeite
Raman shift (cm-1)	intensity
146.116	0
149.009	588.436
151.901	840.318
154.794	366.574
157.687	28.4477
160.579	42.3154
163.472	438.016
166.365	601.576
169.258	728.153
172.15	760.763
175.043	725.778
177.936	696.935
180.828	743.077
183.721	952.645
186.614	1164.69
189.506	1190.58
192.399	821.628
195.292	589.349
198.185	405.894
201.077	335.426
203.97	347.576
206.863	327.764
209.755	311.384
212.648	311.665
215.541	429.379
218.433	602.434
221.326	855.017
224.219	1227.48
227.112	1492.72
230.004	1832.12
232.897	1952.22
235.79	1918.8
238.682	1706.89
241.575	1547.33
244.468	1404.15
247.36	1436.69
250.253	1381.16
253.146	1392.1
256.038	1273.45
258.931	986.245
261.824	685.001
264.717	337.614
267.609	31.682
270.502	14.1845
273.395	8.02234
276.287	4.88668
279.18	6.9516
282.073	5.28269
284.966	98.7344
287.858	160.245
290.751	301.748
293.644	452.703
296.536	612.253
299.429	936.189
302.322	1268.11
305.214	1660.39
308.107	1795.07
311	1586.7
313.892	1306.57
316.785	955.845
319.678	693.954
322.571	671.99
325.463	877.372
328.356	1059.6
331.249	1259.2
334.141	1683.95
337.034	2244.74
339.927	3024.61
342.82	4124.66
345.712	5253.53
348.605	6338.04
351.498	7218.04
354.39	8063.65
357.283	8847.42
360.176	9826.18
363.068	10767.5
365.961	10956.7
368.854	10499.1
371.747	9410.09
374.639	7763.99
377.532	5935.5
380.425	4220.45
383.317	2880.41
386.21	2173.07
389.103	1713.84
391.995	1634.91
394.888	1661.37
397.781	1817.07
400.673	1962.67
403.566	2128.15
406.459	2129.8
409.351	2040.42
412.244	1822.26
415.137	1567.02
418.03	1145.02
420.922	856.502
423.815	562.138
426.708	297.807
429.6	73.9683
432.493	40.9053
435.386	28.1788
438.279	22.8409
441.171	23.8235
444.064	27.0805
446.957	29.2891
449.849	40.7873
452.742	51.1304
455.635	252.763
458.527	528.427
461.42	836.585
464.313	1289.87
467.205	1674.92
470.098	2208.88
472.991	2654.31
475.884	3011.95
478.776	3105.63
481.669	3014.07
484.562	2587.46
487.454	1990.26
490.347	1446.6
493.24	977.946
496.132	635.642
499.025	376.356
501.918	260.389
504.811	85.5225
507.703	229.359
510.596	197.052
513.489	416.379
516.381	642.094
519.274	970.71
522.167	1367.48
525.059	1780.99
527.952	2159.67
530.845	2583.84
533.737	3125.28
536.63	3666.74
539.523	3877.72
542.416	3647.8
545.308	2863.8
548.201	2000.54
551.094	1308.88
553.986	928.957
556.879	783.299
559.772	733.856
562.665	910.22
565.557	1171.21
568.45	1445.42
571.343	1853.26
574.235	2208.64
577.128	2509.27
580.021	2519.26
582.913	2288.02
585.806	1911.64
588.699	1452.86
591.591	1069.49
594.484	770.91
597.377	521.936
600.27	319.968
603.162	149.407
606.055	37.2822
608.948	43.4829
611.84	34.0415
614.733	125.563
617.626	74.1128
620.519	44.3945
623.411	113.795
626.304	219.958
629.197	393.352
632.089	667.499
634.982	1050.98
637.875	1407.08
640.767	1743.01
643.66	1795.55
646.553	1605.53
649.446	1243.92
652.338	925.198
655.231	593.5
658.124	431.692
661.016	180.898
663.909	70.5732
666.802	45.52
669.694	29.4648
672.587	90.9087
675.48	60.9673
678.372	41.6387
681.265	45.3096
684.158	97.3843
687.051	134.596
689.943	269.37
692.836	364.491
695.729	454.866
698.621	584.864
701.514	768.777
704.407	909.782
707.299	1207.28
710.192	1556.01
713.085	2012.52
715.977	2568.08
718.87	3321.13
721.763	4250.93
724.656	5369.62
727.548	6815.32
730.441	8509.5
733.334	10342.3
736.226	12335.8
739.119	14061.8
742.012	15040.4
744.904	14900.2
747.797	14145.8
750.69	12631.7
753.583	10997.4
756.475	9217.88
759.368	7614.65
762.261	6293.98
765.153	5064.2
768.046	4125.65
770.939	3501.27
773.832	2858.14
776.724	2317.15
779.617	1845.7
782.51	1346.73
785.402	974.463
788.295	624.293
791.188	399.558
794.08	203.728
796.973	44.2841
799.866	-13.923
802.759	-21.19
805.651	-7.90209
808.544	44.442
811.437	193.235
814.329	488.405
817.222	927.883
820.115	1587.33
823.007	2251.47
825.9	2676.15
828.793	2532.49
831.686	1966.26
834.578	1496.1
837.471	1138.86
840.364	848.983
843.256	699.5
846.149	652.018
849.042	570.962
851.934	460.96
854.827	346.348
857.72	237.499
860.612	187.188
863.505	37.5945
866.398	11.3042
869.29	4.87109
872.183	28.4248
875.076	25.2686
877.969	18.7527
880.861	16.6873
883.754	6.10718
886.647	1.6416
889.539	10.5935
892.432	9.84082
895.325	43.033
898.217	41.157
901.11	83.9675
904.003	69.6682
906.896	119.007
909.788	138.155
912.681	204.705
915.574	176.862
918.466	208.932
921.359	218.418
924.252	311.28
927.144	332.923
930.037	458.254
932.93	502.798
935.823	588.934
938.715	678.004
941.608	816.638
944.501	1029.72
947.393	1223.79
950.286	1661.02
953.179	2210.71
956.072	2967.16
958.964	3902.84
961.857	4548.81
964.75	4560.25
967.642	3923.42
970.535	3234.81
973.428	2628.48
976.32	2115.05
979.213	1741.3
982.106	1359.61
984.999	1123.95
987.891	812.365
990.784	610.469
993.677	369.557
996.569	301.298
999.462	207.878
1002.36	154.304
1005.25	94.2057
1008.14	68.6137
1011.03	44.6005
1013.92	36.974
1016.82	10.2472
1019.71	36.2064
1022.6	29.0673
1025.5	10.9373
1028.39	3.43433
1031.28	32.8567
1034.17	23.0633
1037.07	15.4266
1039.96	47.7446
1042.85	35.3481
1045.74	16.5222
1048.64	39.3464
1051.53	46.988
1054.42	27.0968
1057.32	34.6351
1060.21	45.575
1063.1	74.7734
1065.99	25.2356
1068.89	67.6948
1071.78	52.8708
1074.67	7.47107
1077.57	61.0773
1080.46	34.7989
1083.35	35.9757
1086.24	8.43665
1089.14	16.7217
1092.03	7.76782
1094.92	2.70203
1097.81	44.0553
1100.71	40.5488
1103.6	39.4365
1106.49	28.6161
1109.38	43.041
1112.28	62.4438
1115.17	3.18262
1118.06	7.06421
1120.95	19.0214
1123.85	9.78552
1126.74	21.0586
1129.63	6.40747
1132.53	12.3782
1135.42	23.7286
1138.31	11.7054
1141.2	24.9576
1144.1	23.5978
1146.99	55.3969
1149.88	11.3271
1152.78	34.7261
1155.67	38.9307
1158.56	47.3748
1161.45	5.85242
1164.35	46.7134
1167.24	17.1731
1170.13	17.433
1173.02	5.22339
1175.92	45.7828
1178.81	34.0549
1181.7	33.2947
1184.6	92.7777
1187.49	40.6788
1190.38	39.5155
1193.27	62.4032
1196.16	29.1339
1199.06	47.4856
1201.95	18.4094
1204.84	6.55042
1207.74	19.3377
1210.63	41.7893
1213.52	34.3164
1216.41	53.5647
1219.31	53.1412
1222.2	45.3395
1225.09	87.8938
1227.98	43.0748
1230.88	63.438
1233.77	18.8445
1236.66	6.29394
1239.56	4.05823
1242.45	71.4606
1245.34	69.2419
1248.23	94.0435
1251.13	49.0478
1254.02	25.7611
1256.91	16.3517
1259.81	55.9756
1262.7	38.2338
1265.59	5.18994
1268.48	0.158691
