Measurement: Raman, 532 nm, unoriented, Raman Data Processed
Mineral: Tyuyamunite
Rruff sample: R060983
Ideal chemistry: Ca(UO_2_)_2_(VO_4_)_2_5-8H_2_O
Locality: Ridenour mine, Coconino, Arizona, USA
Source: Bob Jenkins
Description: Thin platy lemon yellow crystals associated with green tangeite
Raman shift (cm-1)	intensity
136.468	0
139.843	10.0596
143.217	86.2305
146.592	284.55
149.967	334.19
153.342	435.268
156.717	779.861
160.091	1515.82
163.466	2000.59
166.841	2107.12
170.216	1831.45
173.591	1651.55
176.965	1656.92
180.34	1802.52
183.715	1996.36
187.09	1949.87
190.465	1697.69
193.84	1180.3
197.214	638.645
200.589	439.999
203.964	335.097
207.339	386.648
210.714	292.974
214.089	538.99
217.463	870.408
220.838	1308.73
224.213	2079.12
227.588	3021.6
230.963	3888.83
234.337	4410.88
237.712	4523.97
241.087	4237.75
244.462	4120.6
247.837	4089.01
251.212	4131.14
254.586	3738.27
257.961	3323.51
261.336	2265.29
264.711	1210.41
268.086	344.246
271.46	206.971
274.835	328.837
278.21	290.386
281.585	131.19
284.96	231.227
288.334	636.173
291.709	1138.54
295.084	1880.79
298.459	2866.47
301.834	4303.09
305.209	5322.71
308.583	5085.55
311.958	3742.07
315.333	2107.58
318.708	960.437
322.083	460.082
325.457	481.356
328.832	1026.06
332.207	1967.27
335.582	3325.63
338.957	5357.75
342.332	7579.9
345.706	9761.45
349.081	11587.6
352.456	12896.1
355.831	14678.8
359.206	17041.2
362.58	20075.3
365.955	22264.1
369.33	23155.5
372.705	21597.1
376.08	17338.9
379.454	12242
382.829	8104.41
386.204	5586.32
389.579	4135.36
392.954	3500.53
396.329	3296.01
399.703	3609.25
403.078	3878.93
406.453	4310.7
409.828	4486.25
413.203	4071.58
416.577	3331.62
419.952	2387.81
423.327	1385.3
426.702	723.072
430.077	181.495
433.452	44.5371
436.826	174.443
440.201	303.44
443.576	324.003
446.951	194.644
450.326	36.5684
453.7	324.103
457.075	881.661
460.45	1544.15
463.825	2349.49
467.2	3162.71
470.575	3793.63
473.949	4064.69
477.324	3908.59
480.699	3580.79
484.074	2987.88
487.449	2070.82
490.823	1270.12
494.198	585.863
497.573	306.906
500.948	175.915
504.323	239.709
507.697	605.661
511.072	1403.62
514.447	2282.8
517.822	3535.6
521.197	4684.1
524.572	5840.37
527.946	6828.9
531.321	7233.48
534.696	7260.34
538.071	6945.54
541.446	6211.59
544.82	4896.16
548.195	3350.68
551.57	2162.36
554.945	1664.08
558.32	1671.73
561.694	2235.26
565.069	2910.48
568.444	3799.73
571.819	4644.65
575.194	5139.36
578.568	5308.82
581.943	4988.18
585.318	4118.83
588.693	3069.72
592.068	2158.78
595.443	1541.76
598.817	1024.73
602.192	645.766
605.567	254.695
608.942	43.8535
612.317	176.675
615.692	171.047
619.066	75.0781
622.441	172.681
625.816	449.002
629.191	904.18
632.566	1557.11
635.94	2427.86
639.315	3280.59
642.69	3958.78
646.065	4197.07
649.44	3992.35
652.814	3073.19
656.189	2078.76
659.564	1124.08
662.939	543.989
666.314	212.122
669.688	60.6738
673.063	208.405
676.438	244.474
679.813	138.525
683.188	187.308
686.563	355.772
689.937	786.535
693.312	1356.35
696.687	1841.4
700.062	2555.08
703.437	3513.52
706.812	4569.27
710.186	6097.92
713.561	8023.92
716.936	10561.3
720.311	13817.2
723.686	18119.4
727.06	23412.5
730.435	29847.5
733.81	37311.6
737.185	44769
740.56	50897.9
743.934	54739.7
747.309	54213.9
750.684	49868
754.059	43323.8
757.434	36241
760.809	29179.3
764.183	22995.5
767.558	18017.1
770.933	14274.8
774.308	11054
777.683	8503.23
781.057	6435.34
784.432	4437.26
787.807	2848.36
791.182	1536.85
794.557	709.542
797.932	119.403
801.306	179.818
804.681	263.256
808.056	105.237
811.431	318.345
814.806	1208.04
818.18	2927.92
821.555	5169.97
824.93	7512.92
828.305	8546.89
831.68	7707.1
835.054	6103.03
838.429	4831.82
841.804	3903.24
845.179	3190.05
848.554	2570.45
851.929	2020.99
855.303	1519.47
858.678	1015.52
862.053	620.258
865.428	251.613
868.803	90.2803
872.178	5.16016
875.552	97.8613
878.927	101.325
882.302	24.9336
885.677	6.27148
889.052	80.9814
892.426	80.9062
895.801	116.106
899.176	76.9522
902.551	120.889
905.926	262.716
909.3	245.915
912.675	387.106
916.05	422.448
919.425	583.827
922.8	753.142
926.174	925.18
929.549	1014.92
932.924	1192.43
936.299	1370.49
939.674	1606.68
943.049	2002.51
946.423	2696.69
949.798	3544.84
953.173	4854.67
956.548	6486.85
959.923	8041.73
963.298	9097.58
966.672	8716.36
970.047	7825.36
973.422	6647.59
976.797	5344.37
980.172	4014.31
983.546	3054.12
986.921	2237.91
990.296	1577.38
993.671	925.192
997.046	653.057
1000.42	536.77
1003.79	331.057
1007.17	80.0019
1010.54	63.2266
1013.92	25.6816
1017.29	9.33594
1020.67	4.61719
1024.04	1.25098
1027.42	5.44531
1030.79	42.2412
1034.17	5.26025
1037.54	61.6812
1040.92	14.3027
1044.29	37.9683
1047.67	22.3809
1051.04	17.9365
1054.42	49.9907
1057.79	109.376
1061.17	70.3521
1064.54	24.2593
1067.92	82.9692
1071.29	160.917
1074.67	65.8994
1078.04	56.5942
1081.42	19.2812
1084.79	117.349
1088.17	106.069
1091.54	125.626
1094.91	129.383
1098.29	230.276
1101.66	218.98
1105.04	134.102
1108.41	181.204
1111.79	116.425
1115.16	63.9258
1118.54	19.7661
1121.91	19.6304
1125.29	85.9712
1128.66	140.378
1132.04	83.1392
1135.41	47.4233
1138.79	35.1773
1142.16	31.6929
1145.54	4.62451
1148.91	20.353
1152.29	10.604
1155.66	119.262
1159.04	55.2251
1162.41	27.9131
1165.79	45.0469
1169.16	59.8789
1172.54	61.9136
1175.91	80.52
1179.29	105.976
1182.66	91.8438
1186.04	27.1143
1189.41	70.5244
1192.79	80.6533
1196.16	16.0791
1199.54	60.0234
1202.91	23.5693
1206.28	15.7148
1209.66	65.0752
1213.03	52.9512
1216.41	20.1484
1219.78	66.1953
1223.16	21.4551
1226.53	4.65918
1229.91	82.5459
1233.28	28.0869
1236.66	79.1338
1240.03	81.4219
1243.41	73.6973
1246.78	18.1426
1250.16	55.3633
1253.53	81.2647
1256.91	122.107
1260.28	42.1807
1263.66	16.001
1267.03	97.9941
1270.41	130.102
1273.78	110.263
1277.15	20.6719
1280.53	60.669
1283.9	37.8418
1287.28	35.8193
1290.65	64.417
1294.03	0
