Measurement: Raman, 785 nm, unoriented, Raman Data Processed
Mineral: Tyuyamunite
Rruff sample: R070232
Ideal chemistry: Ca(UO_2_)_2_(VO_4_)_2_5-8H_2_O
Locality: Tyuya-Muyun Cu-V-U Deposit, Tyuya-Muyun Hill, Fergana Valley, Osh Oblast, Kyrgyzstan
Source: Michael Scott
Description: Yellow platy crystals and veinlets on calcite
Raman shift (cm-1)	intensity
160.071	0
162.964	1.96143
165.856	103.092
168.749	117.267
171.642	108.052
174.534	135.466
177.427	86.3586
180.32	167.084
183.212	154.602
186.105	197.836
188.998	193.077
191.891	242.526
194.783	196.254
197.676	155.285
200.569	154.516
203.461	165.129
206.354	131.213
209.247	77.6001
212.139	85.9324
215.032	104.79
217.925	168.098
220.818	334.484
223.71	486.224
226.603	654.096
229.496	766.298
232.388	888.799
235.281	949.364
238.174	1048.35
241.066	1031.45
243.959	968.796
246.852	922.231
249.745	874.911
252.637	847.053
255.53	785.936
258.423	622.064
261.315	509.037
264.208	350.036
267.101	172.966
269.993	33.9539
272.886	7.54572
275.779	17.7038
278.672	29.4183
281.564	22.2399
284.457	54.0098
287.35	205.126
290.242	425.863
293.135	662.138
296.028	989.646
298.921	1277.19
301.813	1487.47
304.706	1598.03
307.599	1554.28
310.491	1275.73
313.384	857.162
316.277	492.033
319.169	144.724
322.062	22.4084
324.955	20.0691
327.847	92.4148
330.74	255.571
333.633	460.815
336.526	782.723
339.418	1073.05
342.311	1558.95
345.204	2023.67
348.096	2519.2
350.989	3016.63
353.882	3507.42
356.774	4181.13
359.667	4805.5
362.56	5463.73
365.452	5941.81
368.345	6195.28
371.238	5992.98
374.131	5465.2
377.023	4573.43
379.916	3739.12
382.809	2942.27
385.701	2565.29
388.594	2273.9
391.487	2180.34
394.38	2162.66
397.272	2123.04
400.165	2126.06
403.058	2141.62
405.95	2054.45
408.843	1999.62
411.736	1739.22
414.628	1537.04
417.521	1196.37
420.414	884.122
423.307	515.421
426.199	294.816
429.092	157.254
431.985	16.6748
434.877	15.1627
437.77	14.5203
440.663	15.7442
443.555	17.7304
446.448	16.2966
449.341	60.4207
452.234	121.124
455.126	330.896
458.019	572.733
460.912	816.874
463.804	1050.85
466.697	1278.1
469.59	1489.06
472.483	1539.39
475.375	1470.73
478.268	1405.9
481.161	1249.05
484.053	1035.59
486.946	834.292
489.839	675.556
492.731	499.555
495.624	319.894
498.517	228.198
501.409	139.617
504.302	126.586
507.195	179.084
510.088	291.052
512.98	420.997
515.873	614.38
518.766	873.947
521.658	1138.8
524.551	1464.97
527.444	1639.23
530.337	1847.16
533.229	1965.42
536.122	1903.3
539.015	1725.95
541.907	1487.72
544.8	1188.97
547.693	868.564
550.585	693.916
553.478	516.735
556.371	441.69
559.263	418.856
562.156	405.875
565.049	439.381
567.942	501.224
570.834	559.703
573.727	501.016
576.62	547.873
579.512	542.077
582.405	486.305
585.298	412.09
588.19	326.594
591.083	212.259
593.976	159.949
596.869	87.8884
599.761	24.2942
602.654	17.2839
605.547	-1.1207
608.439	9.33691
611.332	21.351
614.225	14.4722
617.117	7.18272
620.01	51.9845
622.903	108.94
625.795	113.113
628.688	199.854
631.581	265.724
634.474	401.519
637.366	436.228
640.259	530.604
643.152	559.031
646.044	565.36
648.937	526.163
651.83	406.071
654.722	348.833
657.615	267.439
660.508	142.601
663.401	104.027
666.293	36.5374
669.186	-6.80898
672.079	0.413347
674.971	10.0334
677.864	13.4632
680.757	12.9498
683.649	11.9585
686.542	90.0544
689.435	168.816
692.328	257.371
695.22	366.726
698.113	481.2
701.006	622.144
703.898	845.691
706.791	988.177
709.684	1271.12
712.577	1639.68
715.469	2007.24
718.362	2476.49
721.255	3122.83
724.147	3829.33
727.04	4691.98
729.933	5733.89
732.825	6793.15
735.718	7768.98
738.611	8669.39
741.504	9225.97
744.396	9464.67
747.289	9239.02
750.182	8580.83
753.074	7720.68
755.967	6781.64
758.86	5780.44
761.752	4958.9
764.645	4268.08
767.538	3693.45
770.431	3363.23
773.323	2849.84
776.216	2497.13
779.109	2204.64
782.001	1763.08
784.894	1396.26
787.787	946.102
790.679	590.247
793.572	332.386
796.465	166.083
799.357	38.3353
802.25	14.1361
805.143	-6.88722
808.036	12.5976
810.928	13.495
813.821	149.059
816.714	336.376
819.606	524.565
822.499	768.28
825.392	935.037
828.284	1027.05
831.177	953.991
834.07	858.071
836.963	796.013
839.855	723.043
842.748	675.82
845.641	634.79
848.533	593.384
851.426	473.677
854.319	402.949
857.212	318.583
860.104	223.508
862.997	122.402
865.89	50.8927
868.782	13.0664
871.675	24.037
874.568	17.6729
877.46	13.4449
880.353	7.42505
883.246	5.43189
886.139	12.7941
889.031	0.290466
891.924	5.10376
894.817	11.2673
897.709	28.4246
900.602	52.0599
903.495	46.5204
906.388	80.957
909.28	78.8863
912.173	114.962
915.066	131.002
917.958	177.222
920.851	190.29
923.744	239.554
926.636	278.308
929.529	311.39
932.422	366.849
935.314	412.919
938.207	456.12
941.1	560.096
943.993	637.477
946.885	756.594
949.778	911.189
952.671	1072.65
955.563	1283.74
958.456	1446.08
961.349	1595.55
964.241	1687.37
967.134	1651.34
970.027	1548.82
972.92	1353.57
975.812	1185
978.705	1016.04
981.598	824.79
984.49	685.766
987.383	528.145
990.276	393.062
993.168	305.522
996.061	211.032
998.954	139.079
1001.85	101.024
1004.74	41.0456
1007.63	25.9719
1010.52	23.0416
1013.42	20.0906
1016.31	11.6023
1019.2	2.24701
1022.1	4.42325
1024.99	0.830658
1027.88	22.621
1030.77	2.63306
1033.67	2.30707
1036.56	13.5436
1039.45	13.7128
1042.34	6.61832
1045.24	15.7809
1048.13	1.6951
1051.02	2.73349
1053.91	13.5854
1056.81	4.03546
1059.7	8.33649
1062.59	10.6164
1065.49	24.0592
1068.38	10.661
1071.27	24.3497
1074.16	30.6691
1077.06	21.8108
1079.95	46.291
1082.84	22.0669
1085.73	33.8705
1088.63	27.858
1091.52	36.3553
1094.41	25.3923
1097.31	20.5619
1100.2	14.2247
1103.09	23.1142
1105.98	16.1875
1108.88	13.0058
1111.77	1.59464
1114.66	2.49301
1117.56	6.82272
1120.45	3.18304
1123.34	5.14642
1126.23	4.32788
1129.12	11.948
1132.02	3.66266
1134.91	4.21756
1137.8	1.81171
1140.7	3.85571
1143.59	15.2424
1146.48	9.04474
1149.37	7.97635
1152.27	16.3986
1155.16	0.185211
1158.05	16.886
1160.94	11.0043
1163.84	36.0395
1166.73	38.5104
1169.62	27.1457
1172.52	56.369
1175.41	39.4164
1178.3	42.766
1181.19	62.7538
1184.09	53.5079
1186.98	74.4148
1189.87	62.6946
1192.77	75.0653
1195.66	82.3698
1198.55	61.2919
1201.44	91.3507
1204.34	94.9334
1207.23	94.5104
1210.12	99.5378
1213.01	85.4844
1215.91	83.5904
1218.8	56.2892
1221.69	47.731
1224.58	40.1369
1227.48	40.4826
1230.37	34.3986
1233.26	12.8324
1236.15	20.1746
1239.05	0
