Measurement: Raman, 780 nm, unoriented, Raman Data Processed
Mineral: Uchucchacuaite
Rruff sample: R100213
Ideal chemistry: AgMnPb_3_Sb_5_S_12_
Locality: Uchuc-Chacua, Lima, Peru
Source: Mark N. Feinglos
Description: Bright silver metallic massive, associated with quartz
Measured chemistry: Ag_0.99_(Mn_0.92_Pb_0.03_Sb_0.02_Bi_0.01_)_Î£=0.98_Pb_3.00_Sb_5.00_S_12.00_ ; (Note: bright phase is galena, PbS)
Raman shift (cm-1)	intensity
160.994	0
163.887	21.8037
166.78	17.5938
169.673	26.5997
172.565	18.2885
175.458	10.6328
178.351	8.90405
181.243	5.40479
184.136	4.76758
187.029	13.5692
189.921	41.8899
192.814	79.3763
195.707	123.984
198.6	186.434
201.492	281.667
204.385	394.598
207.278	533.008
210.17	648.134
213.063	792.001
215.956	901.956
218.848	972.183
221.741	1027.85
224.634	1052.06
227.526	1048.36
230.419	1029.15
233.312	986.027
236.205	931.785
239.097	897.7
241.99	870.627
244.883	887.334
247.775	940.169
250.668	999.562
253.561	1094.78
256.454	1195.14
259.346	1300.24
262.239	1363.8
265.132	1394.25
268.024	1449.04
270.917	1467.86
273.81	1485.39
276.702	1457.15
279.595	1372.59
282.488	1276.13
285.38	1160.36
288.273	976.155
291.166	725.273
294.059	448.613
296.951	233.651
299.844	79.6504
302.737	22.2963
305.629	7.40466
308.522	24.2388
311.415	54.4607
314.308	92.2998
317.2	151.723
320.093	243.877
322.986	402.424
325.878	584.074
328.771	711.342
331.664	803.192
334.556	914.185
337.449	1067.24
340.342	1157.99
343.234	1124.82
346.127	807.061
349.02	433.751
351.913	201.354
354.805	78.9954
357.698	9.71695
360.591	13.4773
363.483	18.382
366.376	17.8127
369.269	21.3242
372.161	21.5456
375.054	15.1131
377.947	11.6258
380.839	1.25366
383.732	12.0321
386.625	26.6915
389.518	36.5886
392.41	42.7777
395.303	58.7999
398.196	68.5992
401.088	86.4267
403.981	93.3102
406.874	105.269
409.767	108.575
412.659	122.233
415.552	126.854
418.445	135.61
421.337	138.862
424.23	131.052
427.123	130.166
430.015	124.091
432.908	107.628
435.801	108.091
438.693	94.5299
441.586	89.5479
444.479	87.9908
447.372	81.497
450.264	76.0506
453.157	76.3204
456.05	73.9755
458.942	69.1094
461.835	63.6187
464.728	64.8269
467.62	59.4431
470.513	55.4907
473.406	45.8615
476.299	43.1306
479.191	32.6028
482.084	33.8345
484.977	26.6945
487.869	29.5392
490.762	23.7832
493.655	17.3428
496.547	19.7229
499.44	17.6958
502.333	14.3875
505.226	17.5441
508.118	19.608
511.011	10.8589
513.904	6.75748
516.796	8.26109
519.689	4.36868
522.582	7.89499
525.474	11.6569
528.367	10.2922
531.26	14.6803
534.153	10.0053
537.045	5.43747
539.938	6.48636
542.831	3.96699
545.723	2.06172
548.616	5.80612
551.509	1.42157
554.401	4.14957
557.294	5.19864
560.187	0.148819
563.08	1.42305
565.972	2.49866
568.865	3.92633
571.758	0.999298
574.65	0.396881
577.543	0.617264
580.436	0.824615
583.328	2.6944
586.221	3.26151
589.114	2.83525
592.006	1.32678
594.899	4.8224
597.792	4.82873
600.685	3.69943
603.577	1.05701
606.47	2.66482
609.363	2.71456
612.255	2.51529
615.148	0.365829
618.041	3.23772
620.933	7.75192
623.826	5.97233
626.719	5.71361
629.611	8.93305
632.504	3.3354
635.397	12.3324
638.29	5.59258
641.182	5.22942
644.075	5.91278
646.968	3.05683
649.86	5.77529
652.753	7.43673
655.646	4.10252
658.538	10.2491
661.431	9.69682
664.324	6.84615
667.217	10.7887
670.109	4.11281
673.002	3.9343
675.895	5.42993
678.787	2.84164
681.68	6.84335
684.573	6.62939
687.466	0.710976
690.358	2.33006
693.251	8.40112
696.144	8.5471
699.036	4.65963
701.929	6.38496
704.822	5.874
707.714	4.65714
710.607	2.47279
713.5	6.81985
716.393	7.46614
719.285	7.85236
722.178	9.89521
725.071	10.8315
727.963	7.15602
730.856	6.05066
733.749	9.57307
736.641	8.80858
739.534	7.56944
742.427	10.167
745.319	3.13287
748.212	0.229439
751.105	2.05145
753.998	6.07446
756.89	7.50703
759.783	2.644
762.676	12.2585
765.568	7.673
768.461	7.63747
771.354	7.39696
774.246	9.77453
777.139	2.79241
780.032	5.72929
782.925	7.63181
785.817	4.56652
788.71	6.04012
791.603	7.1776
794.495	5.14391
797.388	8.26366
800.281	7.65207
803.173	4.10952
806.066	8.94529
808.959	4.8198
811.851	4.93021
814.744	6.60461
817.637	4.54247
820.53	3.79438
823.422	8.54347
826.315	3.01974
829.208	5.15742
832.1	5.86694
834.993	2.04774
837.886	6.7255
840.779	0.587326
843.671	0.008202
846.564	0.855461
849.457	0.06427
852.349	3.88963
855.242	0.450325
858.135	6.21131
861.027	2.5881
863.92	4.67333
866.813	10.8498
869.706	4.02509
872.598	4.9949
875.491	3.97698
878.384	2.77694
881.276	3.87418
884.169	7.13442
887.062	3.0452
889.954	3.94524
892.847	2.8239
895.74	9.18407
898.632	7.00291
901.525	4.29244
904.418	7.45664
907.311	4.06556
910.203	5.7381
913.096	1.7455
915.989	5.50054
918.881	4.63363
921.774	9.92186
924.667	7.85035
927.559	12.0298
930.452	9.42547
933.345	4.75412
936.237	8.65545
939.13	0.808754
942.023	7.2388
944.916	1.53842
947.808	0.279373
950.701	3.99386
953.594	6.54763
956.486	2.36179
959.379	6.71063
962.272	5.45013
965.164	8.11859
968.057	11.5173
970.95	6.52008
973.843	11.5661
976.735	1.41151
979.628	6.14576
982.521	5.96606
985.413	6.93332
988.306	1.4484
991.199	4.77562
994.091	11.6013
996.984	5.74629
999.877	4.75137
1002.77	1.95962
1005.66	5.98973
1008.55	8.96034
1011.45	7.02591
1014.34	6.27183
1017.23	2.36203
1020.13	4.22417
1023.02	5.29775
1025.91	10.3232
1028.8	9.52309
1031.7	2.2285
1034.59	5.41559
1037.48	4.5768
1040.38	2.3193
1043.27	10.4801
1046.16	6.2291
1049.05	3.8144
1051.94	8.17378
1054.84	2.18168
1057.73	4.15977
1060.62	5.92397
1063.52	3.32842
1066.41	7.04819
1069.3	2.96368
1072.19	3.94659
1075.09	9.80139
1077.98	6.64421
1080.87	4.83212
1083.77	4.91423
1086.66	11.4743
1089.55	7.077
1092.44	2.4462
1095.34	3.87143
1098.23	4.5928
1101.12	4.57988
1104.01	10.727
1106.91	5.0507
1109.8	6.15993
1112.69	0.374344
1115.59	12.2843
1118.48	5.26938
1121.37	0.493408
1124.26	7.32475
1127.16	6.61313
1130.05	7.23079
1132.94	2.87265
1135.83	4.94822
1138.73	3.37174
1141.62	4.80978
1144.51	1.04518
1147.4	4.24336
1150.3	4.81884
1153.19	3.02729
1156.08	9.40315
1158.97	3.38584
1161.87	3.32219
1164.76	3.34538
1167.65	1.97086
1170.55	6.71786
1173.44	6.2405
1176.33	2.15309
1179.22	1.9638
1182.12	5.97885
1185.01	8.04502
1187.9	0.84193
1190.8	10.2537
1193.69	3.73592
1196.58	5.24277
1199.47	4.52746
1202.37	5.85403
1205.26	6.71704
1208.15	6.24532
1211.04	10.8867
1213.94	3.34323
1216.83	1.1755
1219.72	8.62606
1222.62	6.49186
1225.51	6.75618
1228.4	2.54169
1231.29	3.64201
1234.18	5.76834
1237.08	3.29132
1239.97	7.62456
1242.86	3.2941
1245.76	2.14434
1248.65	8.75533
1251.54	7.70685
1254.43	1.36335
1257.33	6.06308
1260.22	1.69047
1263.11	3.91662
1266.01	1.42748
1268.9	3.49832
1271.79	3.38879
1274.68	7.25049
1277.58	3.68541
1280.47	4.55412
1283.36	0.088875
