Measurement: Raman, 780 nm, unoriented, Raman Data Processed
Mineral: Uchucchacuaite
Rruff sample: R070760
Ideal chemistry: AgMnPb_3_Sb_5_S_12_
Locality: Inakuraishi mine, Shakotan peninsula, Shiribeshi Province, Hokkaido Island, Japan
Source: Michael Scott
Description: Steel gray metallic massive associated with rhodochrosite
Measured chemistry: Ag_1.00_(Mn_0.82_Sb_0.11_Ag_0.04_Bi_0.02_)_Î£=0.99_Pb_2.98_Sb_5.00_S_12.00_
Raman shift (cm-1)	intensity
150.636	0
153.529	891.123
156.421	1423.45
159.314	1617.67
162.207	1980.28
165.099	1448.75
167.992	547.33
170.885	168.638
173.777	201.16
176.67	132.398
179.563	133.471
182.456	224.25
185.348	768.217
188.241	1448.3
191.134	1853.44
194.026	1912.83
196.919	954.594
199.812	21.2363
202.704	324.31
205.597	129
208.49	1720.87
211.382	3971.91
214.275	6515.94
217.168	9047.92
220.061	11136.5
222.953	12363.8
225.846	12993.4
228.739	13465.9
231.631	13577.6
234.524	12768.8
237.417	10936.9
240.31	8836.09
243.202	7344.42
246.095	6834.43
248.988	7001.14
251.88	8227.99
254.773	10409.9
257.666	14079.1
260.558	18420.8
263.451	21599.1
266.344	23037.4
269.236	23304.3
272.129	22589
275.022	23410
277.915	26191.1
280.807	27340
283.7	26987.5
286.593	28733.9
289.485	30728.9
292.378	29362.3
295.271	21648.2
298.163	12577.7
301.056	6056.25
303.949	2340.56
306.842	513.504
309.734	310.416
312.627	1079.32
315.52	1554.51
318.412	1842
321.305	2757.21
324.198	4088.79
327.091	5204.73
329.983	6169.51
332.876	7600.45
335.769	11625.1
338.661	17941.1
341.554	28392.9
344.447	39171.3
347.339	35322.8
350.232	20585.3
353.125	9570.31
356.017	4183.59
358.91	1691.7
361.803	453.621
364.696	47.4819
367.588	123.834
370.481	383.813
373.374	523.771
376.266	426.231
379.159	312.61
382.052	193.377
384.945	10.9985
387.837	162.985
390.73	355.821
393.623	557.007
396.515	704.777
399.408	889.13
402.301	1053.07
405.193	1214.35
408.086	1367.54
410.979	1511.79
413.872	1673.25
416.764	1767.02
419.657	1919.38
422.55	2033.89
425.442	2143.39
428.335	2110.61
431.228	1975.97
434.12	1846.98
437.013	1648.65
439.906	1492.77
442.798	1368.44
445.691	1282.11
448.584	1201.17
451.477	1146.44
454.369	1104.54
457.262	1047.47
460.155	1000.18
463.047	1010.21
465.94	949.844
468.833	914.475
471.726	906.276
474.618	806.381
477.511	741.793
480.404	645.876
483.296	577.742
486.189	520.414
489.082	449.33
491.974	414.814
494.867	328.922
497.76	307.418
500.652	289.462
503.545	231.856
506.438	207.181
509.331	161.017
512.223	144.862
515.116	118.802
518.009	150.846
520.901	114.345
523.794	109.205
526.687	94.9226
529.58	92.7311
532.472	108.746
535.365	89.0229
538.258	80.9244
541.15	88.8217
544.043	64.2014
546.936	54.2041
549.828	24.6791
552.721	6.71509
555.614	1.237
558.506	6.72968
561.399	8.86328
564.292	5.55103
567.185	18.3917
570.077	12.3536
572.97	13.7575
575.863	13.5105
578.755	13.1436
581.648	26.221
584.541	10.6935
587.433	19.4205
590.326	24.4332
593.219	8.58887
596.112	32.9678
599.004	4.93927
601.897	11.3485
604.79	13.0844
607.682	18.3239
610.575	20.4018
613.468	42.593
616.361	28.4588
619.253	24.3689
622.146	23.618
625.039	38.3393
627.931	21.4521
630.824	44.884
633.717	45.6509
636.609	68.8375
639.502	65.9982
642.395	75.2347
645.288	73.5691
648.18	66.1951
651.073	82.8052
653.966	49.2783
656.858	57.3739
659.751	48.0939
662.644	52.9756
665.536	61.6953
668.429	31.7645
671.322	57.7501
674.215	52.8352
677.107	21.5117
680	52.6969
682.893	25.7123
685.785	52.4156
688.678	39.5607
691.571	14.4038
694.463	32.2268
697.356	11.7543
700.249	20.4786
703.141	6.52866
706.034	16.9278
708.927	7.70175
711.82	6.59964
714.712	22.4931
717.605	17.8132
720.498	37.7817
723.39	27.9099
726.283	30.1173
729.176	39.7903
732.068	45.8202
734.961	32.2153
737.854	29.805
740.747	58.8555
743.639	45.9528
746.532	54.8066
749.425	51.3819
752.317	29.5674
755.21	51.0697
758.103	13.8717
760.995	47.8693
763.888	40.9537
766.781	20.4521
769.674	39.2293
772.566	56.3253
775.459	32.9407
778.352	16.337
781.244	8.67777
784.137	43.3327
787.03	20.976
789.923	25.0655
792.815	10.8553
795.708	28.9211
798.601	8.46405
801.493	28.9551
804.386	4.13004
807.279	17.9031
810.171	25.2387
813.064	20.0151
815.957	12.3253
818.85	11.1074
821.742	12.2394
824.635	11.893
827.528	18.4345
830.42	8.84143
833.313	14.5084
836.206	10.4172
839.098	4.36005
841.991	4.03851
844.884	4.75021
847.776	11.9808
850.669	18.0299
853.562	9.49823
856.455	24.6468
859.347	36.5008
862.24	4.2608
865.133	39.0782
868.025	9.12387
870.918	19.9409
873.811	9.98052
876.703	21.2851
879.596	23.4746
882.489	15.2539
885.381	10.7622
888.274	9.13007
891.167	7.19328
894.06	17.3669
896.952	5.36594
899.845	4.007
902.738	14.8719
905.63	36.5104
908.523	31.9113
911.416	5.48358
914.308	16.0414
917.201	18.5887
920.094	29.8659
922.987	2.86198
925.879	17.9672
928.772	18.6207
931.665	6.56821
934.557	12.1236
937.45	8.94928
940.343	6.56416
943.236	5.19034
946.128	30.0989
949.021	19.8487
951.914	0.671295
954.806	6.28914
957.699	8.40199
960.592	7.60242
963.484	27.8863
966.377	17.695
969.27	8.94984
972.163	20.419
975.055	5.70096
977.948	20.8838
980.841	7.68413
983.733	17.4528
986.626	17.703
989.519	14.7022
992.411	15.2959
995.304	1.63796
998.197	22.2837
1001.09	22.8846
1003.98	26.1642
1006.88	1.26712
1009.77	12.3474
1012.66	32.5067
1015.55	31.5263
1018.45	15.2237
1021.34	14.5424
1024.23	35.1784
1027.12	7.99098
1030.02	33.2338
1032.91	12.5958
1035.8	22.5572
1038.69	1.49556
1041.59	27.3374
1044.48	13.1549
1047.37	26.5248
1050.27	12.8495
1053.16	8.23492
1056.05	20.2555
1058.94	45.1546
1061.84	30.5387
1064.73	26.1528
1067.62	20.5024
1070.51	29.4284
1073.41	0.882797
1076.3	21.6821
1079.19	6.58537
1082.09	16.8066
1084.98	20.1881
1087.87	12.6066
1090.76	26.1728
1093.66	22.9174
1096.55	18.2004
1099.44	15.2491
1102.33	20.9771
1105.23	60.344
1108.12	18.4116
1111.01	41.3651
1113.9	17.8191
1116.8	13.2291
1119.69	38.6978
1122.58	7.94966
1125.48	21.1413
1128.37	33.6155
1131.26	5.32144
1134.15	24.8429
1137.05	25.7425
1139.94	25.6168
1142.83	17.513
1145.72	25.7931
1148.62	22.3283
1151.51	23.2264
1154.4	8.19362
1157.3	3.46919
1160.19	25.4989
1163.08	16.3028
1165.97	0.216141
1168.87	16.6099
1171.76	24.9462
1174.65	16.6504
1177.54	226.832
1180.44	20.1136
1183.33	28.4714
1186.22	24.1184
1189.12	24.6757
1192.01	9.38422
1194.9	13.2101
1197.79	10.5739
1200.69	2.47404
1203.58	57.3339
1206.47	14.257
1209.36	38.4133
1212.26	8.93907
1215.15	11.7915
1218.04	20.1388
1220.93	8.68585
1223.83	341.313
1226.72	31.6728
1229.61	29.3848
1232.51	24.1767
1235.4	93.7303
1238.29	22.5214
1241.18	23.0825
1244.08	33.0939
1246.97	19.9697
1249.86	16.4497
1252.75	11.4857
1255.65	8.82368
1258.54	23.4553
1261.43	40.6508
1264.33	0
