Measurement: Raman, 532 nm, unoriented, Raman Data Processed
Mineral: Ulexite
Rruff sample: R050062
Ideal chemistry: NaCaB_5_O_6_(OH)_6_5H_2_O
Locality: California, USA
Source: Rock Currier
Description: Compact parallel fibrous group
Measured chemistry: (Na_0.60_Ca_0.20_[box]_20_)_Σ=1_Ca_1.00_B_5.00_O_6_(OH)_6_·5H_2_O ; B not measured but assumed by stoichiometry and charge balance.
Raman shift (cm-1)	intensity
163.161	0
166.054	623.473
168.946	1217.34
171.839	1131.72
174.732	678.225
177.625	714.184
180.517	1425.32
183.41	2425.3
186.303	3104.88
189.195	3459.61
192.088	3830.54
194.981	4020.73
197.874	3192.86
200.766	1852.09
203.659	1631.63
206.552	1843.98
209.444	2166.88
212.337	2956.4
215.23	3017.66
218.122	2156.07
221.015	1177.9
223.908	1053.07
226.8	1425.65
229.693	1674.5
232.586	1240.27
235.479	534.809
238.371	64.3412
241.264	21.141
244.157	47.8984
247.049	9.27119
249.942	215.535
252.835	582.164
255.727	1259.41
258.62	1700.95
261.513	1724.69
264.406	1282.91
267.298	834.691
270.191	365.621
273.084	10.7578
275.976	263.383
278.869	376.879
281.762	914.664
284.655	1507.17
287.547	2293.98
290.44	3152.39
293.333	3870.16
296.225	4724.48
299.118	5075
302.011	4313.61
304.904	3133.47
307.796	2269.63
310.689	2005.58
313.582	1926.74
316.474	2081.49
319.367	1787.93
322.26	1790.83
325.152	1820.65
328.045	1895.76
330.938	1799.91
333.83	2290.98
336.723	2024.86
339.616	2162.53
342.509	2453.86
345.401	2186.83
348.294	2097.21
351.187	1645.77
354.079	1607.87
356.972	1676.15
359.865	2153.77
362.757	2434.28
365.65	2627.39
368.543	2568.38
371.436	2508.19
374.328	2207.8
377.221	1750.5
380.114	1491.48
383.006	1398.83
385.899	1401.22
388.792	1193.13
391.685	714.164
394.577	290.938
397.47	59.2178
400.363	-37.1153
403.255	41.1148
406.148	87.2656
409.041	383.336
411.933	548.828
414.826	936.375
417.719	1364.93
420.611	1235.25
423.504	1275.7
426.397	1700.77
429.29	2462.26
432.182	3543.72
435.075	4586.12
437.968	4800.31
440.86	3781.64
443.753	2346.45
446.646	1234.54
449.538	409.379
452.431	123.719
455.324	99.2338
458.217	123.001
461.109	154.81
464.002	189.903
466.895	601.227
469.787	1285.99
472.68	2099.32
475.573	3368.79
478.466	3883.65
481.358	4260.23
484.251	4006.14
487.144	3124.15
490.036	2220.13
492.929	1410.93
495.822	1093.11
498.714	542.144
501.607	303.551
504.5	256.637
507.393	199.371
510.285	122.269
513.178	328.016
516.071	876.273
518.963	1654.8
521.856	2858.18
524.749	3771.85
527.641	4607.99
530.534	3740.22
533.427	2228.09
536.32	959.031
539.212	396.18
542.105	7.35547
544.998	129.328
547.89	237.797
550.783	525.707
553.676	657.289
556.568	422.824
559.461	520.738
562.354	930.656
565.247	1444.57
568.139	2021.61
571.032	3281.53
573.925	4919.33
576.817	7249.21
579.71	10638.1
582.603	15441.7
585.495	20775.5
588.388	25672.7
591.281	28415.8
594.174	26423.4
597.066	19441.9
599.959	12929.4
602.852	8394.47
605.744	5471.22
608.637	3935.59
611.53	2953.16
614.423	2301.95
617.315	1869.07
620.208	1600.23
623.101	1306.14
625.993	905.465
628.886	704.398
631.779	348.984
634.671	77.8125
637.564	68.5234
640.457	62.9141
643.35	114.137
646.242	30.1992
649.135	77.6836
652.028	1.4375
654.92	58.7734
657.813	32.668
660.706	259.289
663.598	226.371
666.491	174.973
669.384	325.578
672.277	410.348
675.169	541.305
678.062	380.231
680.955	426.606
683.847	520.484
686.74	412.285
689.633	425.398
692.525	462.707
695.418	619.266
698.311	530.129
701.204	589.301
704.096	866.957
706.989	961.223
709.882	1108.09
712.774	1568.14
715.667	2068
718.56	2624.16
721.452	3145.32
724.345	4402.67
727.238	5214.89
730.131	6527.06
733.023	7210.27
735.916	7850.48
738.809	7976.62
741.701	7940.2
744.594	7721.19
747.487	7369.73
750.38	5847.46
753.272	4148.29
756.165	2743.09
759.058	1791.91
761.95	1318.61
764.843	916.957
767.736	469.449
770.628	308.738
773.521	185.188
776.414	122.227
779.307	77.6406
782.199	180.93
785.092	31.1172
787.985	66.5664
790.877	138.242
793.77	32.7773
796.663	284.707
799.555	525.656
802.448	797.113
805.341	806.297
808.234	1116.82
811.126	1457.64
814.019	1355.43
816.912	1442.9
819.804	1273.92
822.697	893.887
825.59	759.066
828.482	827.156
831.375	697.269
834.268	854.691
837.16	698.676
840.053	739.926
842.946	673.844
845.839	598.227
848.731	1044.55
851.624	770.875
854.517	747.324
857.409	645.684
860.302	376.348
863.195	325.988
866.087	543.356
868.98	273.828
871.873	105.957
874.766	104.438
877.658	134.578
880.551	12.1602
883.444	132.07
886.337	131.379
889.229	22.8555
892.122	120.723
895.015	66.8047
897.907	47.3828
900.8	413.43
903.693	252.219
906.585	36.4727
909.478	16.8828
912.371	307.637
915.264	189.043
918.156	31.2305
921.049	120.773
923.942	417.699
926.834	606.562
929.727	771.219
932.62	960.512
935.512	962.219
938.405	1270.56
941.298	1206.23
944.191	1142.44
947.083	1021.34
949.976	1037.27
952.869	1335.17
955.761	1672.7
958.654	2869.22
961.547	3659.32
964.439	4971.88
967.332	6284.09
970.225	6854.03
973.117	6901.47
976.01	6073.49
978.903	4885.59
981.796	3911.81
984.688	2722.95
987.581	2107.07
990.474	1893.18
993.366	1973.49
996.259	2042.17
999.152	2408.16
1002.04	2504.26
1004.94	2793.95
1007.83	2983.42
1010.72	2921.35
1013.62	2647.46
1016.51	2337.29
1019.4	1582.31
1022.29	1263.65
1025.19	770.266
1028.08	505.242
1030.97	316.961
1033.86	371.625
1036.76	147.055
1039.65	164.008
1042.54	271.086
1045.43	129.273
1048.33	7.34375
1051.22	107.93
1054.11	92.6719
1057.01	82.9141
1059.9	376.75
1062.79	201.422
1065.68	99.5938
1068.58	337.953
1071.47	232.945
1074.36	114.758
1077.26	72.9766
1080.15	4.69531
1083.04	102.984
1085.93	4.54688
1088.83	132.156
1091.72	359.148
1094.61	461.555
1097.5	643.617
1100.4	546.375
1103.29	702.234
1106.18	633.391
1109.07	636.367
1111.97	650.875
1114.86	838.562
1117.75	896.508
1120.64	1170.68
1123.54	948.883
1126.43	935.617
1129.32	796.289
1132.22	635.844
1135.11	441.109
1138	355.516
1140.89	118.734
1143.79	339.195
1146.68	201.414
1149.57	271.766
1152.46	174.648
1155.36	27.0781
1158.25	173.398
1161.14	115.031
1164.04	2.64062
1166.93	57.1562
1169.82	270.844
1172.71	55.5078
1175.61	242.516
1178.5	66.8438
1181.39	86.9922
1184.29	498.508
1187.18	578.602
1190.07	975.219
1192.96	945.547
1195.86	1137.03
1198.75	1026.84
1201.64	1238.13
1204.53	1240.16
1207.43	676.438
1210.32	818.242
1213.21	771.039
1216.1	616.5
1219	575.969
1221.89	360.023
1224.78	275.117
1227.67	470.359
1230.57	300.039
1233.46	322.172
1236.35	230.461
1239.25	508.453
1242.14	230
1245.03	323.195
1247.92	52.3516
1250.82	169.414
1253.71	97.0625
1256.6	88.9844
1259.49	116.711
1262.39	170.188
1265.28	171.172
1268.17	130.531
1271.07	164.672
1273.96	211.289
1276.85	222.977
1279.74	295.281
1282.64	433.305
1285.53	327.359
1288.42	253.617
1291.32	250.789
1294.21	206.18
1297.1	171.852
1299.99	180.07
1302.88	1.78906
