Measurement: Raman, 780 nm, unoriented, Raman Data Processed
Mineral: Ulexite
Rruff sample: R050491
Ideal chemistry: NaCaB_5_O_6_(OH)_6_5H_2_O
Locality: Open Pit mine, Boron, Kern County, California, USA
Source: California Institute of Technology
Description: Colorless fragment
Raman shift (cm-1)	intensity
121.746	0
125.121	51.8575
128.496	35.5855
131.87	4.09021
135.245	15.8804
138.62	113.259
141.995	109.326
145.37	35.4158
148.744	41.3205
152.119	20.6862
155.494	3.02777
158.869	7.39078
162.244	18.0018
165.619	78.1424
168.994	114.038
172.368	92.1598
175.743	64.3778
179.118	56.9941
182.493	91.5102
185.868	136.252
189.242	152.183
192.617	174.811
195.992	181.814
199.367	139.602
202.742	85.8943
206.117	62.6182
209.491	59.3321
212.866	76.0894
216.241	86.6234
219.616	48.2316
222.991	23.9874
226.365	25.9471
229.74	41.817
233.115	37.392
236.49	14.9851
239.865	0.848328
243.239	3.67886
246.614	3.76508
249.989	16.8622
253.364	38.8944
256.739	67.1459
260.114	93.6166
263.488	87.588
266.863	56.8378
270.238	23.5628
273.613	2.79349
276.988	4.21658
280.363	2.76623
283.737	5.8577
287.112	15.3031
290.487	28.8351
293.862	46.0129
297.237	59.9256
300.611	71.772
303.986	57.4835
307.361	40.9955
310.736	35.3792
314.111	41.8917
317.486	51.9493
320.86	56.2014
324.235	54.6003
327.61	53.8633
330.985	50.6641
334.36	34.6951
337.734	20.0489
341.109	17.3293
344.484	19.2929
347.859	19.8661
351.234	18.287
354.608	15.6889
357.983	21.4591
361.358	34.2278
364.733	46.3977
368.108	42.4319
371.483	37.7358
374.857	31.3151
378.232	22.0288
381.607	11.7882
384.982	8.98383
388.357	12.1003
391.731	8.2343
395.106	1.69179
398.481	3.06795
401.856	2.26616
405.231	0.485321
408.606	5.07358
411.98	12.5242
415.355	26.4476
418.73	41.6692
422.105	43.072
425.48	41.7708
428.854	49.3569
432.229	69.6263
435.604	98.1738
438.979	114.026
442.354	87.0123
445.729	47.5914
449.103	21.497
452.478	7.32329
455.853	0.04953
459.228	2.90007
462.603	1.16817
465.978	3.81195
469.352	12.4943
472.727	27.0962
476.102	43.8864
479.477	57.0693
482.852	67.7846
486.226	64.3922
489.601	46.6479
492.976	29.4951
496.351	17.059
499.726	7.97464
503.101	0.579391
506.475	1.59192
509.85	0.508209
513.225	8.202
516.6	18.9601
519.975	34.2428
523.349	66.222
526.724	109.502
530.099	130.084
533.474	85.5789
536.849	36.0953
540.223	11.7726
543.598	3.3403
546.973	5.61974
550.348	14.4808
553.723	19.8194
557.098	18.9156
560.472	13.2981
563.847	12.7283
567.222	20.594
570.597	35.4192
573.972	60.0919
577.346	99.7648
580.721	149.853
584.096	217.717
587.471	308.563
590.846	406.116
594.221	439.25
597.596	340.245
600.97	208.504
604.345	124.992
607.72	76.6426
611.095	52.7854
614.47	40.8799
617.844	33.8037
621.219	31.7325
624.594	29.3076
627.969	22.8407
631.344	15.6561
634.718	6.98434
638.093	3.72365
641.468	0.341156
644.843	0.81543
648.218	2.24818
651.592	1.26747
654.967	1.40164
658.342	0.906647
661.717	0.396088
665.092	1.91627
668.467	3.25305
671.841	3.69539
675.216	5.42485
678.591	5.41284
681.966	7.40712
685.341	6.42195
688.716	9.0519
692.09	8.04562
695.465	9.75995
698.84	12.0336
702.215	14.6553
705.59	15.8189
708.965	18.0351
712.339	21.7447
715.714	26.0229
719.089	32.5887
722.464	41.9917
725.839	54.3466
729.213	69.9951
732.588	90.0063
735.963	105.787
739.338	115.951
742.713	117.5
746.087	118.96
749.462	110.284
752.837	82.8486
756.212	56.2185
759.587	35.4068
762.962	21.6018
766.336	13.5808
769.711	8.48943
773.086	4.51793
776.461	1.36793
779.836	0.053444
783.21	0.747795
786.585	1.3028
789.96	1.42645
793.335	1.59928
796.71	1.9239
800.085	2.59193
803.459	5.09525
806.834	11.4584
810.209	11.438
813.584	15.7924
816.959	17.017
820.333	16.545
823.708	12.6626
827.083	8.4881
830.458	5.40621
833.833	3.76943
837.208	3.0854
840.582	3.59438
843.957	4.1292
847.332	5.17522
850.707	7.1421
854.082	10.192
857.457	12.1812
860.831	12.7525
864.206	11.8019
867.581	9.3186
870.956	7.42272
874.331	5.83765
877.705	3.39494
881.08	0.245064
884.455	0.235039
887.83	0.068672
891.205	1.11226
894.58	0.724091
897.954	1.30059
901.329	2.46851
904.704	2.36079
908.079	1.76012
911.454	0.714287
914.828	0.490349
918.203	0.385506
921.578	1.07752
924.953	3.10719
928.328	6.588
931.702	8.66494
935.077	12.847
938.452	14.1092
941.827	14.2239
945.202	13.5157
948.577	13.2997
951.951	12.4966
955.326	15.9957
958.701	22.0959
962.076	35.0839
965.451	52.5738
968.826	74.2109
972.2	90.5753
975.575	82.0645
978.95	72.362
982.325	57.9033
985.7	42.1639
989.074	29.1573
992.449	27.5567
995.824	29.1675
999.199	35.8211
1002.57	42.9089
1005.95	49.81
1009.32	56.7336
1012.7	58.5231
1016.07	52.2277
1019.45	41.7054
1022.82	29.0278
1026.2	17.6861
1029.57	10.5726
1032.95	6.1338
1036.32	1.74825
1039.7	1.17886
1043.07	0.683983
1046.45	0.555153
1049.82	0.436455
1053.2	1.42966
1056.57	0.529709
1059.95	1.89055
1063.32	3.16453
1066.69	3.19711
1070.07	2.51184
1073.44	3.01872
1076.82	0.596046
1080.19	0.510994
1083.57	0.273773
1086.94	0.572617
1090.32	2.52678
1093.69	1.21869
1097.07	1.33725
1100.44	1.91332
1103.82	2.071
1107.19	4.6281
1110.57	4.06928
1113.94	1.44598
1117.32	1.18466
1120.69	2.57636
1124.07	2.48469
1127.44	3.58878
1130.82	3.85624
1134.19	1.05696
1137.57	1.42252
1140.94	2.4863
1144.32	1.7388
1147.69	2.14894
1151.07	0.433205
1154.44	0.466995
1157.82	0.932503
1161.19	0.19249
1164.57	0.032005
1167.94	0.279526
1171.32	0.668526
1174.69	1.65492
1178.06	2.09
1181.44	3.12654
1184.81	3.41911
1188.19	3.7009
1191.56	5.0233
1194.94	5.74542
1198.31	6.43669
1201.69	7.71088
1205.06	7.36247
1208.44	6.27086
1211.81	5.50594
1215.19	4.06296
1218.56	2.93678
1221.94	3.03249
1225.31	2.0098
1228.69	5.52712
1232.06	2.7812
1235.44	2.50514
1238.81	2.90762
1242.19	3.14291
1245.56	3.80734
1248.93	2.88577
1252.31	0.813271
1255.68	1.83654
1259.06	0.064774
1262.43	1.50062
1265.81	1.04076
1269.18	0.870842
1272.56	0.235916
1275.93	0.264694
1279.31	1.01984
1282.68	0.880997
1286.06	0.408607
