Measurement: Raman, 785 nm, unoriented, Raman Data Processed
Mineral: Ulexite
Rruff sample: R050062
Ideal chemistry: NaCaB_5_O_6_(OH)_6_5H_2_O
Locality: California, USA
Source: Rock Currier
Description: Compact parallel fibrous group
Measured chemistry: (Na_0.60_Ca_0.20_[box]_20_)_Σ=1_Ca_1.00_B_5.00_O_6_(OH)_6_·5H_2_O ; B not measured but assumed by stoichiometry and charge balance.
Raman shift (cm-1)	intensity
167.785	0
170.677	234.211
173.57	149.182
176.463	56.1377
179.356	100.628
182.248	330.795
185.141	769.537
188.034	900.922
190.926	1069.64
193.819	1295.28
196.712	1311.41
199.604	1074.26
202.497	728.825
205.39	471.714
208.282	542.883
211.175	687.875
214.068	817.653
216.961	737.308
219.853	519.639
222.746	362.849
225.639	431.517
228.531	517.16
231.424	470.444
234.317	229.83
237.209	128.261
240.102	84.4502
242.995	32.3574
245.888	60.0469
248.78	6.99121
251.673	86.3154
254.566	246.7
257.458	450.457
260.351	573.267
263.244	579.768
266.137	322.153
269.029	157.723
271.922	65.375
274.815	45.6924
277.707	48.9707
280.6	107.829
283.493	260.906
286.385	450.638
289.278	654.668
292.171	775.352
295.063	990.544
297.956	1183.49
300.849	1303.73
303.742	1049.35
306.634	894.316
309.527	633.083
312.42	616.617
315.312	645.595
318.205	630.328
321.098	619.762
323.99	532.495
326.883	615.976
329.776	640.742
332.669	630.891
335.561	526.143
338.454	528.376
341.347	528.891
344.239	584.786
347.132	504.544
350.025	450.19
352.918	404.862
355.81	413.296
358.703	391.194
361.596	564.889
364.488	526.442
367.381	547.506
370.274	562.127
373.166	605.92
376.059	495.263
378.952	479.985
381.844	345.912
384.737	290.267
387.63	250.593
390.523	268.694
393.415	98.083
396.308	25.2344
399.201	11.4971
402.093	35.8272
404.986	2.46582
407.879	2.51562
410.772	82.8936
413.664	161.825
416.557	328.89
419.45	294.629
422.342	391.039
425.235	357.203
428.128	448.632
431.02	712.13
433.913	960.362
436.806	1079.75
439.699	1212.72
442.591	789.427
445.484	495.835
448.377	247.07
451.269	60.0215
454.162	60.3125
457.055	65.6924
459.947	33.542
462.84	1.39844
465.733	71.0625
468.625	229.393
471.518	416.252
474.411	596.078
477.304	786.598
480.196	948.367
483.089	985.057
485.982	815.687
488.874	696.482
491.767	462.476
494.66	362.633
497.553	186.117
500.445	70.1103
503.338	46.5381
506.231	33.8701
509.123	3.32812
512.016	92.6172
514.909	95.7822
517.802	200.637
520.694	454.303
523.587	697.874
526.48	1066.99
529.372	1173.03
532.265	885.631
535.158	423.544
538.05	166
540.943	129.004
543.836	19.0693
546.729	42.6152
549.621	90.3106
552.514	98.0527
555.407	207.248
558.299	198.535
561.192	158.671
564.085	227.618
566.977	285.619
569.87	511.49
572.763	799.551
575.655	1169.22
578.548	1789.69
581.441	2803.6
584.333	3671.24
587.226	4925.98
590.119	5958.73
593.012	6198.33
595.904	5365.03
598.797	3836.56
601.69	2377.41
604.582	1654.54
607.475	1061.26
610.368	781.842
613.26	557.18
616.153	441.107
619.046	364.761
621.939	323.798
624.831	306.066
627.724	232.03
630.617	186.552
633.509	71.8408
636.402	58.6103
639.295	38.3477
642.188	15.5068
645.08	53.794
647.973	12.1592
650.866	53.8281
653.758	19.041
656.651	1.67871
659.544	55.6504
662.436	87.0703
665.329	48.9414
668.222	143.584
671.115	101.226
674.007	133.59
676.9	132.11
679.793	153.167
682.685	169.055
685.578	174.652
688.471	169.23
691.363	177.763
694.256	211.581
697.149	166.361
700.042	284.185
702.934	245.652
705.827	287.896
708.72	361.519
711.612	321.457
714.505	454.205
717.398	528.649
720.29	675.628
723.183	765.677
726.076	1030.3
728.968	1274.37
731.861	1450.84
734.754	1655.97
737.647	1691.19
740.539	1699.82
743.432	1674.29
746.325	1671.55
749.217	1589.11
752.11	1216.05
755.003	845.113
757.895	579.232
760.788	402.332
763.681	257.528
766.574	172.468
769.466	133.248
772.359	73.7588
775.252	20.6494
778.144	26.0576
781.037	24.9072
783.93	10.2607
786.822	46.7422
789.715	32.3565
792.608	52.6904
795.501	41.3652
798.393	71.2314
801.286	35.1738
804.179	103.707
807.071	142.285
809.964	213.375
812.857	244.886
815.75	268.838
818.642	196.247
821.535	258.072
824.428	170.339
827.32	100.103
830.213	70.9756
833.106	79.6269
835.998	75.2578
838.891	14.375
841.784	109.686
844.677	103.765
847.569	110.061
850.462	217.701
853.355	101.124
856.247	40.1719
859.14	111.655
862.033	105.21
864.925	76.6475
867.818	78.5332
870.711	131.114
873.604	81.7217
876.496	5.74121
879.389	12.2783
882.282	8.59277
885.174	10.1787
888.067	35.1397
890.96	1.79199
893.852	27.7793
896.745	12.3281
899.638	39.7402
902.53	4.29883
905.423	19.3555
908.316	9.66016
911.209	51.0195
914.101	12.2256
916.994	34.4639
919.887	22.627
922.779	53.166
925.672	190.995
928.565	155.292
931.457	150.014
934.35	213.632
937.243	181.132
940.136	257.202
943.028	153.762
945.921	223.598
948.814	130.151
951.706	160.071
954.599	208.642
957.492	314.225
960.385	461.722
963.277	715.475
966.17	987.915
969.063	1162.05
971.955	1186.29
974.848	1076.91
977.741	1025.46
980.633	807.233
983.526	599.174
986.419	449.044
989.312	385.516
992.204	268.804
995.097	386.3
997.99	343.908
1000.88	438.918
1003.77	492.17
1006.67	480.562
1009.56	558.335
1012.45	537.175
1015.35	500.484
1018.24	353.153
1021.13	281.869
1024.02	160.653
1026.92	166.45
1029.81	116.34
1032.7	81.0298
1035.6	75.6338
1038.49	47.1103
1041.38	74.7754
1044.27	27.7798
1047.17	10.4004
1050.06	0.682617
1052.95	31.665
1055.84	10.6362
1058.74	37.6943
1061.63	15.6851
1064.52	23.3252
1067.41	94.0493
1070.31	22.167
1073.2	52.5781
1076.09	32.1763
1078.98	21.8452
1081.88	3.55176
1084.77	35.4277
1087.66	39.0889
1090.56	109.015
1093.45	63.7148
1096.34	132.495
1099.23	42.4258
1102.13	114.652
1105.02	154.403
1107.91	101.239
1110.81	84.0562
1113.7	147.518
1116.59	162.703
1119.48	161.486
1122.38	109.985
1125.27	184.859
1128.16	146.467
1131.05	150.725
1133.95	114.493
1136.84	120.895
1139.73	105.017
1142.62	63.3081
1145.52	50.8193
1148.41	114.092
1151.3	19.499
1154.19	18.7705
1157.09	0.915039
1159.98	46.1714
1162.87	71.3467
1165.77	0.774902
1168.66	81.9043
1171.55	48.3877
1174.44	112.264
1177.34	98.4824
1180.23	50.7637
1183.12	68.0513
1186.02	129.495
1188.91	89.6035
1191.8	94.875
1194.69	206.444
1197.59	156.674
1200.48	148.113
1203.37	147.549
1206.26	131.454
1209.16	74.0732
1212.05	35.3135
1214.94	71.2041
1217.84	39.8345
1220.73	0.008789
1223.62	42.8125
1226.51	4.53076
1229.41	46.6592
1232.3	59.8052
1235.19	0
