Measurement: Raman, 514 nm, unoriented, Raman Data Processed
Mineral: Ulexite
Rruff sample: R050062
Ideal chemistry: NaCaB_5_O_6_(OH)_6_5H_2_O
Locality: California, USA
Source: Rock Currier
Description: Compact parallel fibrous group
Measured chemistry: (Na_0.60_Ca_0.20_[box]_20_)_Σ=1_Ca_1.00_B_5.00_O_6_(OH)_6_·5H_2_O ; B not measured but assumed by stoichiometry and charge balance.
Raman shift (cm-1)	intensity
101.732	0
105.908	876.945
110.082	1286.47
114.254	260.154
118.424	1126.51
122.592	1023.23
126.758	660.279
130.922	395.172
135.083	498.279
139.243	1122
143.401	500.055
147.557	716.746
151.711	534.373
155.863	158.223
160.013	147.637
164.161	873.465
168.308	1384.82
172.452	1565.4
176.594	1412.62
180.734	1733.21
184.872	1947.86
189.008	2150.32
193.143	2428.67
197.275	2194.93
201.405	1216.33
205.534	842.162
209.66	1054.52
213.784	1460.16
217.907	1138.83
222.027	298.521
226.146	541.914
230.263	612.953
234.377	401.598
238.49	110.133
242.601	267.217
246.709	227.613
250.816	69.73
254.921	262.844
259.024	696.363
263.125	677.336
267.224	387.834
271.321	169.129
275.416	96.572
279.51	45.428
283.601	239.879
287.69	488.031
291.778	1046.03
295.863	1537.32
299.947	1815.37
304.029	1463.09
308.108	983.516
312.186	1100.08
316.262	1130.72
320.336	1004.55
324.408	1142.29
328.478	1101.79
332.546	1066.72
336.612	934.111
340.677	950.77
344.739	1134.74
348.799	835.859
352.858	873.377
356.915	755.949
360.969	1065.25
365.022	1383.44
369.073	1464.59
373.122	1103.62
377.169	830.566
381.215	766.764
385.258	757.76
389.299	656.727
393.339	548.572
397.376	323.219
401.412	212.484
405.446	201.107
409.478	56.195
413.508	119.768
417.536	365.68
421.562	355.51
425.586	502.15
429.609	841.623
433.629	1635.43
437.648	2132.73
441.665	1388.34
445.68	736.002
449.693	88.721
453.704	185.961
457.713	84.537
461.721	5.416
465.726	114.77
469.73	439.096
473.731	1146.94
477.731	1680.66
481.729	2164
485.725	2046.35
489.72	1576.12
493.712	1112.58
497.703	784.68
501.691	699.961
505.678	630.346
509.663	471.789
513.646	697.629
517.627	1005.05
521.607	1395.11
525.584	2334
529.56	2810.83
533.534	1577.02
537.506	1276.07
541.476	972.818
545.444	1035.73
549.41	1038.55
553.375	1409.24
557.337	1342.81
561.298	1150.55
565.257	1338.75
569.214	1502.04
573.17	1690.89
577.123	2557.39
581.075	4008.54
585.024	5983.86
588.972	9930.5
592.918	11511
596.863	9586.45
600.805	6168.9
604.746	3896.18
608.685	2211.19
612.621	1649.45
616.557	1277.03
620.49	1102.78
624.421	476.359
628.351	878.781
632.279	757.219
636.205	168.514
640.129	132.957
644.051	146.176
647.972	267.193
651.89	52.277
655.807	189.785
659.722	199.434
663.636	19.332
667.547	103.326
671.457	32.559
675.365	29.904
679.271	39.646
683.175	246.104
687.077	17.355
690.978	165.031
694.877	441.994
698.774	96.873
702.669	88.305
706.562	394.84
710.454	363.195
714.344	270.066
718.232	375.771
722.118	994.854
726.002	1218.88
729.885	1964.44
733.766	2272.34
737.645	2724.54
741.522	2964.17
745.397	3046.81
749.271	2923.57
753.143	1637.43
757.013	992.459
760.881	774.305
764.748	392.441
768.613	144.133
772.476	60.488
776.337	289.715
780.196	106.684
784.054	53.938
787.91	120.309
791.764	230.348
795.616	497.008
799.467	255.492
803.316	391.539
807.163	1060.41
811.008	1136.77
814.851	1432.51
818.693	1412.83
822.533	1083.06
826.371	783.527
830.208	489.402
834.042	588.012
837.875	952.164
841.706	1239.78
845.536	1037.61
849.363	386.301
853.189	304.262
857.013	538.996
860.836	414.766
864.656	444.352
868.475	475.742
872.292	318.891
876.108	105.383
879.922	449.172
883.733	240.949
887.544	1.324
891.352	42.699
895.159	97.809
898.964	496.176
902.767	423.363
906.568	373.418
910.368	256.34
914.166	67.141
917.962	129.805
921.757	511.473
925.55	622.555
929.341	606.777
933.13	640.598
936.918	531.957
940.703	1018.84
944.488	898.387
948.27	1126.62
952.051	1306.72
955.83	1393.53
959.607	1536.16
963.383	1923.58
967.156	2963.35
970.928	3350.63
974.699	3126.98
978.468	2728.53
982.234	2317.65
986	2314.9
989.763	2023.06
993.525	1887.13
997.285	1966.9
1001.04	2660.01
1004.8	2778.58
1008.55	2079.97
1012.31	2318.97
1016.06	1718.46
1019.81	1519.12
1023.56	1264.46
1027.31	1415.15
1031.05	1382.25
1034.79	884.055
1038.53	1273.57
1042.27	1605.22
1046.01	967.211
1049.75	1221.34
1053.48	1031
1057.22	1029.81
1060.95	831.004
1064.68	1041.4
1068.4	1208.83
1072.13	1077.19
1075.86	926.508
1079.58	770.355
1083.3	323.18
1087.02	396.035
1090.74	405.73
1094.45	120.781
1098.17	255.941
1101.88	420.68
1105.59	553.637
1109.3	269.461
1113.01	138.723
1116.71	760.578
1120.42	375.523
1124.12	684.164
1127.82	745.422
1131.52	459.715
1135.22	159.141
1138.91	573.406
1142.61	54.25
1146.3	351.145
1149.99	69.371
1153.68	486.48
1157.37	159.547
1161.06	2.898
1164.74	99.301
1168.42	235.973
1172.1	29.617
1175.78	481.676
1179.46	376.023
1183.14	188.293
1186.81	361.492
1190.48	386.348
1194.15	405.918
1197.83	803.707
1201.49	697.078
1205.16	1067.89
1208.82	823.855
1212.49	739.215
1216.15	771.211
1219.81	570.285
1223.46	343.902
1227.12	431.789
1230.78	762.547
1234.43	1207.67
1238.08	1101.36
1241.73	984.785
1245.38	704.004
1249.03	211.629
1252.67	399.566
1256.31	375.973
1259.95	785.797
1263.6	525.77
1267.23	500.953
1270.87	173.637
1274.51	337.434
1278.14	116.406
1281.77	419.719
1285.4	776.434
1289.03	555.301
1292.66	399.57
1296.28	829.668
1299.91	552.168
1303.53	348.695
1307.15	588.23
1310.77	1030.45
1314.38	221.309
1318	467.918
1321.61	663.035
1325.23	563.207
1328.84	46.18
1332.45	423.164
1336.06	292.961
1339.66	0
