Measurement: Raman, 532 nm, unoriented, Raman Data Processed
Mineral: Ulexite
Rruff sample: R050491
Ideal chemistry: NaCaB_5_O_6_(OH)_6_5H_2_O
Locality: Open Pit mine, Boron, Kern County, California, USA
Source: California Institute of Technology
Description: Colorless fragment
Raman shift (cm-1)	intensity
134.398	0
137.773	63.6798
141.148	91.2996
144.523	27.144
147.898	45.534
151.272	28.0294
154.647	9.17841
158.022	6.95358
161.397	17.2976
164.772	81.8098
168.147	132.527
171.521	113.362
174.896	86.6221
178.271	83.81
181.646	124.608
185.021	171.904
188.395	185.759
191.77	204.171
195.145	205.922
198.52	164.069
201.895	97.5279
205.269	63.5027
208.644	56.5983
212.019	73.0827
215.394	93.584
218.769	63.9579
222.143	31.8412
225.518	30.0884
228.893	46.4871
232.268	44.2512
235.643	18.2544
239.018	3.70734
242.392	7.1658
245.767	0.265137
249.142	18.0109
252.517	43.7742
255.892	85.1988
259.267	119.873
262.641	119.828
266.016	79.981
269.391	39.6748
272.766	11.1028
276.141	2.90555
279.515	2.38995
282.89	8.51773
286.265	23.82
289.64	43.7306
293.015	61.4297
296.389	84.0066
299.764	99.492
303.139	84.6194
306.514	56.6134
309.889	47.6484
313.264	56.5871
316.638	70.1985
320.013	78.2192
323.388	77.7336
326.763	76.3068
330.138	72.6844
333.512	51.008
336.887	29.8021
340.262	19.2784
343.637	20.8334
347.012	23.7871
350.387	25.9341
353.761	28.319
357.136	40.514
360.511	59.0856
363.886	80.7552
367.261	79.2143
370.635	67.7756
374.01	58.0362
377.385	45.1692
380.76	29.2057
384.135	23.8625
387.51	25.4706
390.884	21.4713
394.259	6.65604
397.634	1.97647
401.009	4.98553
404.384	1.52112
407.759	5.22775
411.133	18.8745
414.508	36.228
417.883	57.1576
421.258	62.9819
424.632	61.3544
428.007	78.0903
431.382	108.044
434.757	151.472
438.132	178.386
441.507	148.441
444.881	86.2996
448.256	41.0698
451.631	12.3583
455.006	1.62033
458.381	2.53558
461.755	4.21448
465.13	1.81094
468.505	15.7418
471.88	36.5043
475.255	64.1877
478.63	85.5097
482.004	102.696
485.379	94.5076
488.754	71.6081
492.129	48.0213
495.504	28.4059
498.878	12.6247
502.253	2.40161
505.628	1.48456
509.003	0.947571
512.378	5.59613
515.753	24.4034
519.127	55.4974
522.502	99.543
525.877	164.848
529.252	204.005
532.627	146.238
536.001	68.4971
539.376	23.7747
542.751	11.1483
546.126	10.4505
549.501	19.9113
552.876	26.4957
556.25	24.7691
559.625	16.1018
563	19.6263
566.375	31.2177
569.75	57.0623
573.125	92.0196
576.499	148.905
579.874	234.143
583.249	349.481
586.624	499.264
589.999	656.58
593.373	722.065
596.748	587.207
600.123	366.026
603.498	215.792
606.873	131.22
610.247	89.9912
613.622	69.872
616.997	57.973
620.372	50.2738
623.747	44.4954
627.121	36.8573
630.496	24.3148
633.871	14.283
637.246	7.34888
640.621	1.36874
643.996	2.6843
647.37	3.26605
650.745	4.30469
654.12	2.29654
657.495	0.806
660.87	0.114746
664.245	2.12326
667.619	5.07404
670.994	5.92825
674.369	6.89017
677.744	9.63733
681.119	11.4941
684.493	13.9867
687.868	13.4622
691.243	13.3729
694.618	15.4304
697.993	16.4436
701.367	20.9621
704.742	20.7845
708.117	26.4894
711.492	30.1405
714.867	38.7045
718.242	49.6454
721.616	62.5519
724.991	81.9872
728.366	107.708
731.741	135.319
735.116	167.479
738.49	188.597
741.865	192.074
745.24	193.298
748.615	180.021
751.99	142.432
755.365	97.7562
758.739	61.6534
762.114	39.9725
765.489	25.2217
768.864	13.5884
772.239	5.95636
775.614	3.19229
778.988	0.020203
782.363	0.511292
785.738	0.835938
789.113	2.44598
792.487	0.397675
795.862	2.60513
799.237	4.15875
802.612	7.69968
805.987	13.1228
809.362	20.4426
812.736	25.9239
816.111	28.8979
819.486	27.6139
822.861	23.2297
826.236	13.9669
829.611	9.94217
832.985	4.69904
836.36	2.42227
839.735	2.82666
843.11	2.68509
846.485	5.27591
849.859	9.89285
853.234	14.643
856.609	18.0591
859.984	20.5533
863.359	18.9507
866.734	15.2001
870.108	11.3104
873.483	6.63345
876.858	4.20154
880.233	0.152252
883.608	0.960083
886.982	2.86127
890.357	0.758881
893.732	1.02591
897.107	2.58987
900.482	4.34189
903.856	6.37714
907.231	6.95428
910.606	4.6943
913.981	0.417816
917.356	0.593719
920.731	4.6192
924.105	9.64792
927.48	14.0826
930.855	21.5404
934.23	25.2678
937.605	26.5614
940.98	28.1642
944.354	27.5817
947.729	21.8628
951.104	21.3754
954.479	26.7697
957.854	40.6517
961.228	60.0819
964.603	92.8255
967.978	133.496
971.353	161.949
974.728	162.171
978.102	146.374
981.477	117.799
984.852	83.845
988.227	62.3885
991.602	56.4181
994.977	59.2773
998.351	69.7583
1001.73	88.9414
1005.1	101.065
1008.48	118.203
1011.85	125.541
1015.23	113.144
1018.6	91.5256
1021.98	64.5182
1025.35	42.9862
1028.72	26.7333
1032.1	13.0193
1035.47	7.74188
1038.85	1.22156
1042.22	2.38742
1045.6	0.3797
1048.97	2.18637
1052.35	3.09265
1055.72	0.769928
1059.1	0.228729
1062.47	1.07449
1065.85	2.49185
1069.22	4.11948
1072.6	3.96024
1075.97	4.96426
1079.35	2.73761
1082.72	0.322235
1086.1	0.975372
1089.47	0.671783
1092.85	2.55743
1096.22	3.91238
1099.6	6.65106
1102.97	7.22214
1106.35	5.61212
1109.72	5.31235
1113.1	3.92883
1116.47	2.97397
1119.85	4.65198
1123.22	7.46707
1126.59	7.91031
1129.97	7.40695
1133.34	9.00305
1136.72	6.92718
1140.09	5.45779
1143.47	4.28723
1146.84	2.34964
1150.22	1.724
1153.59	1.84421
1156.97	0.965485
1160.34	0.129578
1163.72	0.320007
1167.09	1.32239
1170.47	0.028748
1173.84	2.3627
1177.22	3.52567
1180.59	4.14636
1183.97	3.6445
1187.34	7.20901
1190.72	7.21201
1194.09	11.2894
1197.47	13.7946
1200.84	12.698
1204.21	12.9681
1207.59	10.6921
1210.96	10.7387
1214.34	9.71808
1217.71	9.09991
1221.09	7.44992
1224.46	6.29892
1227.84	8.05096
1231.21	6.59396
1234.59	6.27493
1237.96	8.01999
1241.34	8.48294
1244.71	7.12891
1248.09	4.14386
1251.46	4.97046
1254.84	3.04352
1258.21	1.84082
1261.59	0.81665
1264.96	0.545593
1268.34	0.331512
1271.71	1.7431
1275.09	2.29477
1278.46	1.45456
1281.84	4.85877
1285.21	3.12625
1288.59	2.09876
1291.96	3.54889
1295.34	1.81317
1298.71	1.92889
1302.09	0.949615
