Measurement: Raman, 785 nm, unoriented, Raman Data Processed
Mineral: Ullmannite
Rruff sample: R050247
Ideal chemistry: NiSbS
Locality: Salchendorf, Siegerland, North Rhine-Westphalia, Germany
Source: Marcus Origlieri
Description: Steel gray massive
Measured chemistry: Ni_1.00_(Sb_0.78_As_0.22_)S_1.00_
Raman shift (cm-1)	intensity
109.956	0
112.849	71.39
115.742	139.705
118.635	608.845
121.527	242.579
124.42	35.727
127.313	459.04
130.205	1398.23
133.098	2686.76
135.991	3018.72
138.884	1690.65
141.776	750.532
144.669	730.326
147.562	1011.25
150.454	1284.83
153.347	1284.75
156.24	1048.02
159.133	846.644
162.025	831.47
164.918	727.335
167.811	526.831
170.703	488.237
173.596	407.746
176.489	414.438
179.381	378.538
182.274	611.055
185.167	771.919
188.059	1186.3
190.952	1510.8
193.845	1249.8
196.738	852.01
199.63	736.774
202.523	659.591
205.416	617.446
208.308	546.595
211.201	462.348
214.094	311.172
216.986	181.601
219.879	65.581
222.772	0.88
225.665	42.545
228.557	32.105
231.45	12.709
234.343	6.872
237.235	50.788
240.128	63.841
243.021	98.847
245.913	114.531
248.806	159.272
251.699	170.656
254.592	190.64
257.484	246.836
260.377	319.389
263.27	366.821
266.162	422.803
269.055	450.861
271.948	399.013
274.841	390.621
277.733	368.913
280.626	413.52
283.519	458.671
286.411	510.494
289.304	568.755
292.197	549.467
295.089	510.659
297.982	410.536
300.875	408.302
303.767	359.347
306.66	241.383
309.553	270.151
312.446	179.051
315.338	151.358
318.231	65.24
321.124	46.349
324.016	5.615
326.909	17.156
329.802	15.28
332.694	10.029
335.587	41.005
338.48	27.939
341.373	35.029
344.265	45.547
347.158	44.495
350.051	41.559
352.943	34.355
355.836	30.054
358.729	26.927
361.621	0.733
364.514	36.83
367.407	14.342
370.3	9.708
373.192	24.309
376.085	67.551
378.978	49.896
381.87	105.319
384.763	94.715
387.656	61.669
390.548	31.869
393.441	78.129
396.334	32.333
399.227	19.091
402.119	19.678
405.012	6.55
407.905	23.142
410.797	10.717
413.69	59.213
416.583	40.018
419.475	46.813
422.368	60.593
425.261	45.641
428.154	51.008
431.046	59.806
433.939	25.895
436.832	5.353
439.724	12.071
442.617	44.689
445.51	28.678
448.402	33.439
451.295	16.74
454.188	27.779
457.081	35.199
459.973	45.881
462.866	45.589
465.759	52.67
468.651	61.988
471.544	52.691
474.437	22.646
477.329	34.864
480.222	52.401
483.115	36.596
486.008	48.176
488.9	52.196
491.793	57.455
494.686	73.418
497.578	52.951
500.471	52.39
503.364	57.397
506.257	49.373
509.149	0.851
512.042	3.546
514.935	28.523
517.827	16.004
520.72	28.164
523.613	16.661
526.505	1.47
529.398	22.188
532.291	5.617
535.183	23.816
538.076	8.51
540.969	45.721
543.862	50.986
546.754	52.559
549.647	35.848
552.54	21.029
555.432	41.742
558.325	27.423
561.218	38.092
564.11	40.467
567.003	27.901
569.896	1.807
572.789	10
575.681	32.383
578.574	41.264
581.467	24.621
584.359	24.772
587.252	26.999
590.145	43.41
593.038	37.871
595.93	48.397
598.823	53.501
601.716	28.71
604.608	38.489
607.501	58.971
610.394	30.309
613.286	18.967
616.179	34.943
619.072	32.234
621.965	48.388
624.857	78.747
627.75	47.868
630.643	45.129
633.535	19.782
636.428	20.932
639.321	30.879
642.214	33.202
645.106	5.675
647.999	31.339
650.892	27.459
653.784	30.088
656.677	33.274
659.57	30.151
662.462	3.442
665.355	49.132
668.248	40.598
671.141	8.589
674.033	37.787
676.926	39.744
679.819	29.768
682.711	35.036
685.604	19.555
688.497	46.609
691.389	16.579
694.282	16.494
697.175	29.356
700.068	36.304
702.96	62.672
705.853	37.224
708.746	37.816
711.638	33.261
714.531	51.948
717.424	33.338
720.316	23.624
723.209	29.343
726.102	51.595
728.995	27.095
731.887	13.007
734.78	36.238
737.673	12.806
740.565	25.883
743.458	14.635
746.351	30.515
749.243	29.881
752.136	33.159
755.029	36.036
757.922	58.19
760.814	60.988
763.707	11.786
766.6	34.203
769.492	24.514
772.385	30.682
775.278	29.1
778.17	18.751
781.063	33.734
783.956	44.597
786.849	12.561
789.741	51.033
792.634	38.787
795.527	21.64
798.419	13.352
801.312	0.922
804.205	20.34
807.097	16.606
809.99	20.636
812.883	14.112
815.776	21.668
818.668	16.482
821.561	27.479
824.454	16.632
827.346	33.098
830.239	27.219
833.132	22.624
836.024	31.54
838.917	9.686
841.81	41.14
844.703	27.006
847.595	17.851
850.488	34.983
853.381	30.465
856.273	30.364
859.166	28.227
862.059	1.774
864.951	41.825
867.844	18.117
870.737	23.376
873.63	27.066
876.522	33.136
879.415	18.614
882.308	24.352
885.2	20.718
888.093	1.47
890.986	30.058
893.878	42.666
896.771	9.308
899.664	4.782
902.557	5.288
905.449	33.767
908.342	16.947
911.235	11.868
914.127	17.506
917.02	13.427
919.913	56.04
922.805	16.272
925.698	51.629
928.591	25.016
931.484	9.334
934.376	9.406
937.269	43.74
940.162	14.998
943.054	13.688
945.947	1.904
948.84	13.095
951.732	38.227
954.625	48.094
957.518	21.505
960.411	14.848
963.303	20.733
966.196	2.984
969.089	27.14
971.981	21.5
974.874	50.021
977.767	11.446
980.659	32.957
983.552	27.105
986.445	25.729
989.338	28.146
992.23	7.174
995.123	0.378
998.016	16.5
1000.91	5.494
1003.8	48.232
1006.69	46.889
1009.59	12.925
1012.48	16.242
1015.37	33.963
1018.26	20.677
1021.16	5.548
1024.05	2.925
1026.94	9.797
1029.84	15.302
1032.73	45.693
1035.62	38.834
1038.51	16.774
1041.41	40.109
1044.3	54.42
1047.19	50.426
1050.08	10.905
1052.98	22.879
1055.87	54.886
1058.76	26.233
1061.65	8.02
1064.55	34.834
1067.44	45.961
1070.33	17.271
1073.23	48.741
1076.12	41.696
1079.01	8.552
1081.9	38.614
1084.8	41.564
1087.69	42.653
1090.58	27.656
1093.47	28.961
1096.37	51.89
1099.26	22.191
1102.15	21.597
1105.05	3.754
1107.94	22.418
1110.83	19.748
1113.72	41.812
1116.62	43.626
1119.51	42.174
1122.4	50.11
1125.3	37.312
1128.19	47.124
1131.08	52.164
1133.97	27.131
1136.87	48.276
1139.76	35.461
1142.65	17.161
1145.54	41.891
1148.44	17.673
1151.33	25.065
1154.22	13.72
1157.11	10.354
1160.01	20.242
1162.9	27.262
1165.79	22.013
1168.68	60.873
1171.58	29.429
1174.47	55.703
1177.36	12.942
1180.26	28.864
1183.15	12.445
1186.04	46.578
1188.93	31.724
1191.83	16.526
1194.72	30.391
1197.61	2.668
1200.51	60.951
1203.4	40.647
1206.29	6.998
1209.18	0.937
1212.08	44.209
1214.97	22.057
1217.86	17.886
