Measurement: Raman, 780 nm, unoriented, Raman Data Processed
Mineral: Ulrichite
Rruff sample: R070748
Ideal chemistry: CaCu(UO_2_)(PO_4_)_2_4H_2_O
Locality: Lake Boga Quarry, Lake Boga, Victoria, Australia
Source: Royal Ontario Museum
Description: Radiating aggregates of light green acicular crystals associated with quartz
Raman shift (cm-1)	intensity
127.494	0
130.387	42.1796
133.28	71.9589
136.172	103.596
139.065	134.273
141.958	99.8428
144.85	162.219
147.743	150.75
150.636	62.4136
153.529	9.2926
156.421	13.8986
159.314	25.6776
162.207	7.87653
165.099	16.9959
167.992	23.7966
170.885	55.2689
173.777	54.3129
176.67	93.5242
179.563	116.449
182.456	179.438
185.348	192.925
188.241	261.684
191.134	352.891
194.026	458.532
196.919	461.378
199.812	516.775
202.704	541.2
205.597	578.145
208.49	591.085
211.382	628.658
214.275	640.95
217.168	635.457
220.061	577.239
222.953	435.837
225.846	422.789
228.739	310.32
231.631	244.152
234.524	228.877
237.417	191.785
240.31	150.952
243.202	119.616
246.095	51.6609
248.988	65.6281
251.88	57.5052
254.773	11.0707
257.666	41.5054
260.558	28.8271
263.451	29.763
266.344	15.6713
269.236	37.7844
272.129	59.9257
275.022	36.2343
277.915	23.4051
280.807	54.5856
283.7	52.9562
286.593	52.0573
289.485	39.4033
292.378	51.1696
295.271	33.1568
298.163	30.6066
301.056	1.12476
303.949	12.2905
306.842	11.399
309.734	15.8607
312.627	6.25938
315.52	5.57098
318.412	19.5218
321.305	9.43814
324.198	1.99335
327.091	14.5559
329.983	35.1211
332.876	22.961
335.769	21.7275
338.661	23.6729
341.554	51.4171
344.447	75.3693
347.339	96.2839
350.232	122.569
353.125	151.724
356.017	183.878
358.91	167.512
361.803	74.3557
364.696	89.4859
367.588	57.2388
370.481	54.9136
373.374	56.1229
376.266	32.9471
379.159	37.9165
382.052	28.2734
384.945	9.16829
387.837	19.5974
390.73	24.5651
393.623	30.9332
396.515	16.7886
399.408	2.53464
402.301	22.0018
405.193	2.58376
408.086	15.8227
410.979	22.3389
413.872	12.296
416.764	19.7901
419.657	41.3835
422.55	31.3397
425.442	33.2466
428.335	49.4118
431.228	33.6804
434.12	46.8777
437.013	56.0749
439.906	63.8427
442.798	62.767
445.691	84.5337
448.584	77.3417
451.477	70.9177
454.369	57.7183
457.262	52.2447
460.155	67.8652
463.047	61.7888
465.94	40.7192
468.833	31.1817
471.726	31.0512
474.618	34.2951
477.511	33.4913
480.404	32.4587
483.296	35.7026
486.189	38.4944
489.082	42.3117
491.974	16.2097
494.867	28.3456
497.76	33.6057
500.652	26.2857
503.545	39.9936
506.438	19.0613
509.331	13.3689
512.223	20.0161
515.116	7.65695
518.009	23.1041
520.901	16.5652
523.794	1.87643
526.687	35.86
529.58	2.47203
532.472	2.30666
535.365	8.39751
538.258	21.6783
541.15	4.12521
544.043	2.6935
546.936	22.6122
549.828	6.87276
552.721	11.4379
555.614	6.71434
558.506	18.4474
561.399	9.35359
564.292	18.441
567.185	28.8379
570.077	25.1565
572.97	19.7402
575.863	30.3896
578.755	25.9377
581.648	23.3523
584.541	32.8129
587.433	9.18137
590.326	5.86146
593.219	17.2882
596.112	29.9809
599.004	15.2424
601.897	13.2476
604.79	11.9362
607.682	25.7403
610.575	17.1252
613.468	4.86119
616.361	8.31627
619.253	11.8395
622.146	14.5591
625.039	3.64281
627.931	29.178
630.824	14.4105
633.717	29.7045
636.609	27.7832
639.502	1.07014
642.395	31.2447
645.288	25.4845
648.18	15.2061
651.073	43.1598
653.966	41.4171
656.858	16.621
659.751	42.8794
662.644	38.1652
665.536	45.6213
668.429	29.7436
671.322	29.5926
674.215	26.0774
677.107	44.0416
680	17.4197
682.893	22.1179
685.785	27.3802
688.678	10.7969
691.571	25.8754
694.463	30.2575
697.356	7.60373
700.249	7.29327
703.141	3.15015
706.034	2.28653
708.927	21.7582
711.82	8.07961
714.712	0.826355
717.605	16.623
720.498	18.2648
723.39	11.7418
726.283	1.99593
729.176	11.9629
732.068	1.26151
734.961	14.5153
737.854	8.98531
740.747	8.49597
743.639	22.1273
746.532	27.7046
749.425	19.0411
752.317	10.3456
755.21	33.0863
758.103	44.3751
760.995	46.9564
763.888	31.9903
766.781	57.615
769.674	63.8809
772.566	101.502
775.459	99.2843
778.352	120.75
781.244	189.861
784.137	235.273
787.03	272.024
789.923	387.783
792.815	542.06
795.708	758.867
798.601	1057.55
801.493	1494.09
804.386	1920.8
807.279	2315.92
810.171	2307.41
813.064	1917.24
815.957	1385.88
818.85	980.794
821.742	674.447
824.635	472.813
827.528	319.356
830.42	245.327
833.313	171.632
836.206	118.643
839.098	85.4102
841.991	66.0787
844.884	29.7497
847.776	12.165
850.669	14.0405
853.562	18.1567
856.455	14.9609
859.347	6.11835
862.24	6.87922
865.133	15.6648
868.025	3.19961
870.918	6.41726
873.811	6.43538
876.703	0.212494
879.596	15.2103
882.489	9.47388
885.381	12.4251
888.274	6.42039
891.167	2.77255
894.06	9.90063
896.952	17.9941
899.845	16.3323
902.738	20.4824
905.63	16.998
908.523	3.15904
911.416	9.19707
914.308	12.2452
917.201	14.1198
920.094	27.9628
922.987	11.003
925.879	19.4388
928.772	0.491585
931.665	12.3116
934.557	24.0156
937.45	23.5686
940.343	5.05799
943.236	3.29925
946.128	2.67614
949.021	4.48624
951.914	42.6412
954.806	26.6179
957.699	19.7327
960.592	46.3256
963.484	44.0347
966.377	64.5723
969.27	89.4756
972.163	162.56
975.055	217.234
977.948	240.585
980.841	240.878
983.733	181.353
986.626	83.1454
989.519	47.7291
992.411	43.5297
995.304	42.3005
998.197	35.9828
1001.09	52.8658
1003.98	47.2863
1006.88	68.3337
1009.77	63.8148
1012.66	83.0261
1015.55	90.3354
1018.45	117.085
1021.34	165.443
1024.23	183.933
1027.12	181.787
1030.02	174.857
1032.91	101.035
1035.8	62.556
1038.69	36.2053
1041.59	19.9944
1044.48	15.7504
1047.37	21.0959
1050.27	29.0472
1053.16	15.7451
1056.05	3.6824
1058.94	7.89292
1061.84	3.47571
1064.73	4.62769
1067.62	5.41721
1070.51	3.03065
1073.41	21.3601
1076.3	10.4341
1079.19	6.36134
1082.09	11.8862
1084.98	47.957
1087.87	53.0754
1090.76	56.5511
1093.66	72.0734
1096.55	100.796
1099.44	138.657
1102.33	195.624
1105.23	186.626
1108.12	175.575
1111.01	136.102
1113.9	108.954
1116.8	81.2566
1119.69	54.8185
1122.58	45.8981
1125.48	40.6491
1128.37	30.5074
1131.26	28.1982
1134.15	25.1242
1137.05	16.8882
1139.94	23.0042
1142.83	11.8725
1145.72	27.0154
1148.62	26.6344
1151.51	9.84433
1154.4	2.20222
1157.3	12.679
1160.19	15.4474
1163.08	14.3239
1165.97	13.4415
1168.87	18.707
1171.76	10.1298
1174.65	5.19463
1177.54	26.7077
1180.44	40.3713
1183.33	6.46886
1186.22	11.3066
1189.12	25.7573
1192.01	14.7174
1194.9	24.151
1197.79	17.8559
1200.69	22.921
1203.58	27.6501
1206.47	26.7087
1209.36	12.7971
1212.26	19.9857
1215.15	13.4875
1218.04	14.3546
1220.93	30.0502
1223.83	22.3812
1226.72	22.5534
1229.61	21.7485
1232.51	4.8957
1235.4	11.0351
1238.29	20.8793
1241.18	11.7763
1244.08	26.0012
1246.97	5.15882
1249.86	8.27385
1252.75	25.2906
1255.65	2.54353
1258.54	19.3228
1261.43	13.4485
1264.33	10.1767
1267.22	19.9298
1270.11	0.005402
1273	7.64983
