Measurement: Raman, 532 nm, unoriented, Raman Data Processed
Mineral: Ulrichite
Rruff sample: R070748
Ideal chemistry: CaCu(UO_2_)(PO_4_)_2_4H_2_O
Locality: Lake Boga Quarry, Lake Boga, Victoria, Australia
Source: Royal Ontario Museum
Description: Radiating aggregates of light green acicular crystals associated with quartz
Raman shift (cm-1)	intensity
133.657	0
136.55	216.98
139.443	412.808
142.336	437.548
145.228	716.911
148.121	710.482
151.014	254.646
153.906	35.4985
156.799	62.5654
159.692	14.0254
162.584	104.942
165.477	211.441
168.37	346.082
171.263	293.056
174.155	364.391
177.048	510.283
179.941	728.164
182.833	1122.89
185.726	1436.27
188.619	1969.88
191.512	2451.22
194.404	3123.03
197.297	3609.17
200.19	3804.14
203.082	3977.93
205.975	4184.44
208.868	4551.94
211.76	4707.23
214.653	4681.86
217.546	4839.35
220.439	4974.12
223.331	4389.01
226.224	3328.5
229.117	2423.25
232.009	1872.52
234.902	1547.97
237.795	1414.81
240.687	1290.44
243.58	995.111
246.473	669.499
249.365	490.271
252.258	370.216
255.151	345.581
258.044	205.87
260.936	230.988
263.829	145.984
266.722	117.12
269.614	164.537
272.507	139.758
275.4	267.009
278.293	291.702
281.185	256.183
284.078	291.037
286.971	266.893
289.863	319.975
292.756	294.607
295.649	318.754
298.541	309.972
301.434	246.981
304.327	255.559
307.219	106.096
310.112	13.7959
313.005	25.5415
315.898	42.3347
318.79	59.8379
321.683	11.4966
324.576	3.6167
327.468	31.6096
330.361	100.657
333.254	234.754
336.147	288.555
339.039	461.272
341.932	619.983
344.825	678.19
347.717	762.844
350.61	809.627
353.503	1064.86
356.395	1442.06
359.288	1096.61
362.181	669.104
365.074	362.336
367.966	224.693
370.859	213.511
373.752	227.441
376.644	163.833
379.537	153.447
382.43	111.538
385.322	80.3696
388.215	21.8406
391.108	22.4246
394	25.5852
396.893	0.889893
399.786	12.5877
402.678	27.0786
405.571	112.272
408.464	111.047
411.357	155.833
414.249	198.61
417.142	238.507
420.035	280.604
422.927	383.465
425.82	499.435
428.713	717.589
431.606	786.503
434.498	1070.22
437.391	1282.88
440.284	1454.56
443.176	1549.3
446.069	1430.1
448.962	1366.86
451.854	1226.96
454.747	1050.32
457.64	896.661
460.533	782.849
463.425	710.476
466.318	537.077
469.211	586.956
472.103	522.605
474.996	500.419
477.889	583.541
480.781	582.042
483.674	607.537
486.567	669.654
489.459	636.604
492.352	587.404
495.245	509.561
498.138	473.736
501.03	336.058
503.923	359.389
506.816	203.425
509.708	196.618
512.601	169.767
515.494	127.902
518.386	118.779
521.279	47.1663
524.172	6.59692
527.065	5.90064
529.957	33.6821
532.85	42.4522
535.743	28.1016
538.635	2.64795
541.528	12.8843
544.421	16.791
547.313	2.58203
550.206	16.5925
553.099	4.62256
555.992	42.321
558.884	82.863
561.777	175.145
564.67	201.582
567.562	316.137
570.455	374.609
573.348	374.03
576.24	314.759
579.133	334.668
582.026	286.083
584.919	389.615
587.811	441.825
590.704	471.085
593.597	497.767
596.489	424.728
599.382	305.49
602.275	239.546
605.168	124.395
608.06	101.499
610.953	46.9121
613.846	8.15601
616.738	24.981
619.631	22.9392
622.524	25.6055
625.416	44.917
628.309	38.4605
631.202	49.5772
634.095	5.21973
636.987	34.8474
639.88	54.2903
642.773	68.6311
645.665	74.2319
648.558	178.032
651.451	189.651
654.343	243.31
657.236	290.358
660.129	247.916
663.021	131.618
665.914	81.8806
668.807	35.4519
671.699	42.5161
674.592	52.5989
677.485	10.8438
680.378	71.5469
683.27	79.0303
686.163	54.1323
689.056	54.3855
691.948	65.2451
694.841	141.583
697.734	64.3953
700.626	41.0591
703.519	75.0737
706.412	57.9238
709.305	29.3955
712.197	81.8213
715.09	25.5808
717.983	48.1128
720.875	8.56909
723.768	21.4565
726.661	27.1357
729.553	1.30664
732.446	41.6621
735.339	40.4319
738.232	27.1982
741.124	17.2102
744.017	51.9014
746.91	123.81
749.802	123.442
752.695	170.33
755.588	241.22
758.481	336.553
761.373	480.573
764.266	577.829
767.159	765.412
770.051	966.481
772.944	1156.58
775.837	1464.22
778.729	1873.72
781.622	2390.79
784.515	3166.35
787.408	4139.3
790.3	5566.14
793.193	7725.61
796.086	11003.3
798.978	15955.1
801.871	22372.6
804.764	29132.4
807.656	33877
810.549	33658.7
813.442	26800.5
816.335	18709.7
819.227	12797.8
822.12	8737.37
825.013	6036.51
827.905	4300.55
830.798	2987.8
833.691	2049.82
836.583	1382.26
839.476	984.731
842.369	658.863
845.261	430.712
848.154	253.761
851.047	173.37
853.94	99.406
856.832	73.8328
859.725	7.1311
862.618	34.894
865.51	11.3989
868.403	18.4497
871.296	6.15137
874.188	93.4932
877.081	115.936
879.974	87.4304
882.867	89.3667
885.759	20.6431
888.652	44.5923
891.545	11.5972
894.437	53.885
897.33	12.4131
900.223	7.72192
903.115	4.29492
906.008	22.3401
908.901	3.98462
911.794	28.5852
914.686	20.0479
917.579	4.72021
920.472	2.99097
923.364	2.11719
926.257	18.9397
929.15	33.6697
932.043	15.1865
934.935	65.9004
937.828	31.542
940.721	85.7925
943.613	113.249
946.506	142.321
949.399	200.181
952.291	219.609
955.184	320.141
958.077	462.103
960.97	638.648
963.862	818.773
966.755	1062.88
969.648	1615.54
972.54	2375.26
975.433	3438.6
978.326	4144.94
981.218	4456.89
984.111	3903.37
987.004	2510.22
989.896	1498.47
992.789	1012.85
995.682	961.525
998.574	1115.84
1001.47	1248.44
1004.36	1566.98
1007.25	1876
1010.14	2137.35
1013.04	2639.42
1015.93	3192.24
1018.82	3927.78
1021.72	5075.27
1024.61	6678.13
1027.5	7896.75
1030.39	7586.06
1033.29	5315.65
1036.18	3243.83
1039.07	2080.75
1041.96	1342.54
1044.86	936.214
1047.75	636.313
1050.64	450.446
1053.54	282.607
1056.43	164.785
1059.32	140.743
1062.21	40.4019
1065.11	25.6982
1068	14.1748
1070.89	56.124
1073.79	35.9939
1076.68	43.2964
1079.57	23.5273
1082.46	41.1611
1085.36	104.829
1088.25	205.355
1091.14	317.038
1094.03	544.289
1096.93	822.165
1099.82	1424.28
1102.71	2028.95
1105.6	2504.98
1108.5	2680.54
1111.39	2266.04
1114.28	1590.37
1117.17	1032.72
1120.07	682.599
1122.96	484.114
1125.85	384.251
1128.75	262.454
1131.64	210.503
1134.53	140.975
1137.42	115.829
1140.32	57.2383
1143.21	28.3618
1146.1	49.645
1148.99	11.4451
1151.89	11.5022
1154.78	17.8711
1157.67	14.2156
1160.57	5.40967
1163.46	5.56787
1166.35	12.8852
1169.24	3.12256
1172.14	8.69946
1175.03	2.68164
1177.92	36.7515
1180.82	22.2253
1183.71	31.0393
1186.6	57.3997
1189.49	70.4226
1192.38	35.9534
1195.28	53.2563
1198.17	79.1497
1201.06	65.5312
1203.96	73.4717
1206.85	79.4868
1209.74	95.8027
1212.63	73.4841
1215.53	64.2974
1218.42	42.2837
1221.31	48.6924
1224.2	64.1894
1227.1	45.4592
1229.99	30.3291
1232.88	8.30786
1235.78	42.2178
1238.67	76.1494
1241.56	33.4766
1244.45	50.6545
1247.35	68.7629
1250.24	53.9441
1253.13	29.686
1256.03	38.4756
1258.92	39.1587
1261.81	1.01782
1264.7	24.1272
1267.6	25.6965
1270.49	0.766602
1273.38	10.2004
1276.27	65.844
1279.17	23.7248
1282.06	44.1296
1284.95	13.8411
1287.84	8.14355
