Measurement: Raman, 785 nm, unoriented, Raman Data Processed
Mineral: Umangite
Rruff sample: R070019
Ideal chemistry: Cu_3_Se_2_
Locality: Ato Bay, Beaverlodge Lake, Saskatchewan, Canada
Source: Mark Mauthner
Description: Metallic dark blue to black blebs underneath green glassy material
Measured chemistry: Cu_3.00_Se_2.00_
Raman shift (cm-1)	intensity
161.325	0
164.218	0.96875
167.111	28.9432
170.004	80.035
172.896	117.364
175.789	144.397
178.682	229.107
181.574	282.621
184.467	352.653
187.36	386.637
190.252	404.975
193.145	438.467
196.038	416.95
198.93	371.279
201.823	279.197
204.716	236.558
207.609	196.32
210.501	165.593
213.394	131.585
216.287	86.6626
219.179	87.1219
222.072	85.7168
224.965	74.4434
227.857	65.509
230.75	61.6913
233.643	56.8229
236.536	82.5066
239.428	115.13
242.321	216.939
245.214	338.471
248.106	453.469
250.999	625.559
253.892	782.032
256.784	1005.97
259.677	1163.22
262.57	1051.89
265.463	595.767
268.355	277.348
271.248	107.04
274.141	29.339
277.033	21.0041
279.926	8.37085
282.819	26.0061
285.712	28.189
288.604	1.76843
291.497	4.08814
294.39	8.75879
297.282	24.0324
300.175	6.10828
303.068	10.6571
305.96	15.1974
308.853	21.1017
311.746	13.3938
314.639	10.0947
317.531	12.7971
320.424	5.91382
323.317	1.54663
326.209	17.4711
329.102	1.55371
331.995	41.3185
334.887	33.8611
337.78	22.1465
340.673	53.2542
343.566	20.1426
346.458	14.5088
349.351	59.8279
352.244	46.0604
355.136	33.374
358.029	34.0847
360.922	23.2256
363.815	18.1948
366.707	49.8719
369.6	4.50281
372.493	9.86646
375.385	52.9567
378.278	29.9075
381.171	10.6312
384.063	13.7661
386.956	26.2445
389.849	41.6739
392.741	60.0409
395.634	35.3518
398.527	19.4768
401.42	23.3334
404.312	25.3445
407.205	8.28467
410.098	13.6836
412.99	37.5231
415.883	19.2556
418.776	20.648
421.668	46.1296
424.561	11.8605
427.454	29.2638
430.347	32.7153
433.239	24.881
436.132	29.7433
439.025	21.5376
441.917	20.5112
444.81	15.3785
447.703	44.8052
450.596	13.2632
453.488	24.5408
456.381	19.1207
459.274	0.415405
462.166	7.13831
465.059	24.6174
467.952	2.99487
470.844	1.29761
473.737	12.8959
476.63	7.38464
479.522	21.4862
482.415	19.6322
485.308	11.4866
488.201	23.042
491.093	23.0032
493.986	1.1731
496.879	3.52588
499.771	4.93518
502.664	51.4181
505.557	21.8908
508.45	17.5021
511.342	58.0289
514.235	22.9994
517.128	54.0426
520.02	29.641
522.913	49.5111
525.806	35.6046
528.698	39.8716
531.591	18.6396
534.484	35.1226
537.376	20.486
540.269	0.147217
543.162	3.89722
546.055	24.5507
548.947	38.2997
551.84	6.90881
554.733	17.5851
557.625	3.7251
560.518	25.3405
563.411	17.0601
566.303	13.5316
569.196	38.4305
572.089	8.76685
574.982	37.0885
577.874	53.5173
580.767	16.8787
583.66	28.3679
586.552	33.7991
589.445	67.3927
592.338	38.52
595.231	32.5079
598.123	18.4147
601.016	26.9714
603.909	28.9373
606.801	12.4966
609.694	50.282
612.587	57.3713
615.479	0.830933
618.372	14.2639
621.265	8.75891
624.158	20.571
627.05	36.4586
629.943	23.5107
632.836	13.1609
635.728	3.95044
638.621	23.8668
641.514	46.238
644.406	23.3743
647.299	42.5739
650.192	28.9912
653.085	16.3745
655.977	2.85791
658.87	10.234
661.763	30.5931
664.655	14.7538
667.548	26.9473
670.441	2.5979
673.333	19.6339
676.226	7.71692
679.119	11.4507
682.012	7.19629
684.904	25.8125
687.797	47.1113
690.69	17.0608
693.582	40.2454
696.475	28.3336
699.368	32.4086
702.26	36.6293
705.153	15.033
708.046	39.3636
710.939	35.1222
713.831	18.5897
716.724	0.174805
719.617	14.7389
722.509	29.7375
725.402	25.0594
728.295	9.72424
731.188	17.5477
734.08	34.8387
736.973	50.8246
739.866	12.4236
742.758	28.3964
745.651	15.7611
748.544	18.0382
751.436	43.4434
754.329	25.5961
757.222	19.7471
760.115	6.36987
763.007	24.767
765.9	10.3298
768.793	4.70471
771.685	14.5655
774.578	14.8383
777.471	4.25415
780.363	29.8061
783.256	19.2623
786.149	13.934
789.042	23.4878
791.934	50.3554
794.827	45.7158
797.72	21.1216
800.612	45.2617
803.505	24.2322
806.398	46.9396
809.29	25.8744
812.183	46.7468
815.076	15.0281
817.968	41.0125
820.861	25.3905
823.754	18.8888
826.647	5.82483
829.539	18.3865
832.432	19.7468
835.325	10.9047
838.217	7.22156
841.11	28.5918
844.003	37.3569
846.895	27.5021
849.788	8.73486
852.681	10.7784
855.574	11.558
858.466	25.0172
861.359	18.1038
864.252	17.5718
867.144	22.6223
870.037	10.4327
872.93	22.5065
875.822	8.93249
878.715	40.6561
881.608	11.6139
884.501	11.1665
887.393	6.35877
890.286	26.0054
893.179	43.4314
896.071	24.9435
898.964	23.175
901.857	37.1335
904.75	15.5164
907.642	10.7189
910.535	3.40698
913.428	16.5592
916.32	15.245
919.213	29.0529
922.106	27.6442
924.999	21.7821
927.891	47.809
930.784	7.83777
933.677	5.13403
936.569	24.7924
939.462	29.4969
942.355	28.0267
945.247	4.13245
948.14	15.9939
951.033	10.2089
953.926	33.3549
956.818	22.9163
959.711	41.7151
962.604	23.7386
965.496	6.89038
968.389	1.34326
971.282	20.2086
974.174	34.8024
977.067	17.8297
979.96	31.7892
982.852	11.5795
985.745	35.8845
988.638	2.57165
991.531	42.6711
994.423	40.4576
997.316	17.0361
1000.21	8.89795
1003.1	12.6896
1005.99	30.2307
1008.89	32.3516
1011.78	14.6061
1014.67	43.0908
1017.57	14.0978
1020.46	16.1089
1023.35	40.1083
1026.24	11.1766
1029.14	19.9055
1032.03	32.1849
1034.92	17.408
1037.81	21.6588
1040.71	35.0975
1043.6	29.4852
1046.49	3.72022
1049.38	15.1242
1052.28	15.3687
1055.17	27.5989
1058.06	12.3866
1060.95	30.5715
1063.85	32.2401
1066.74	21.9514
1069.63	22.9793
1072.53	35.0435
1075.42	65.8811
1078.31	32.4443
1081.2	32.1886
1084.1	18.8717
1086.99	21.3934
1089.88	31.7125
1092.78	32.8445
1095.67	9.48901
1098.56	3.42078
1101.45	40.4172
1104.35	23.6266
1107.24	30.4753
1110.13	26.0739
1113.02	28.3355
1115.92	24.0387
1118.81	36.7676
1121.7	18.9174
1124.6	7.19812
1127.49	21.6224
1130.38	28.9717
1133.27	49.2294
1136.17	8.05408
1139.06	39.9169
1141.95	8.02918
1144.84	16.157
1147.74	27.7584
1150.63	31.333
1153.52	52.5464
1156.41	15.3556
1159.31	16.7125
1162.2	11.8556
1165.09	22.5142
1167.98	44.9978
1170.88	1.35095
1173.77	25.3727
1176.66	46.1107
1179.56	42.5653
1182.45	29.3806
1185.34	37.1835
1188.23	45.1918
1191.13	7.23853
1194.02	26.9575
1196.91	11.3623
1199.81	50.0647
1202.7	11.8923
1205.59	12.6325
