Measurement: Raman, 532 nm, unoriented, Raman Data Processed
Mineral: Umangite
Rruff sample: R070019
Ideal chemistry: Cu_3_Se_2_
Locality: Ato Bay, Beaverlodge Lake, Saskatchewan, Canada
Source: Mark Mauthner
Description: Metallic dark blue to black blebs underneath green glassy material
Measured chemistry: Cu_3.00_Se_2.00_
Raman shift (cm-1)	intensity
165.128	0
168.02	15.7288
170.913	88.6096
173.806	133.325
176.699	193.251
179.591	270.825
182.484	462.132
185.377	597.784
188.269	589.144
191.162	619.418
194.055	598.745
196.947	505.077
199.84	350.072
202.733	303.646
205.625	214.631
208.518	169.351
211.411	120.237
214.304	82.8992
217.196	63.2451
220.089	18.9424
222.982	28.6704
225.874	19.939
228.767	5.17896
231.66	11.458
234.553	54.9614
237.445	170.994
240.338	358.887
243.231	651.895
246.123	1090.28
249.016	1586.35
251.909	2263.75
254.801	3052.4
257.694	3789.61
260.587	3818.86
263.479	2601.58
266.372	1082.86
269.265	423.478
272.158	160.258
275.05	131.127
277.943	69.6138
280.836	47.8767
283.728	45.4885
286.621	2.32104
289.514	33.7544
292.406	42.6951
295.299	9.50854
298.192	0.664551
301.084	14.8267
303.977	15.9211
306.87	16.1741
309.763	31.5825
312.655	7.85889
315.548	23.936
318.441	18.021
321.333	14.5823
324.226	13.2966
327.119	5.09448
330.012	15.0034
332.904	30.4673
335.797	6.63599
338.69	17.7056
341.582	66.825
344.475	33.2068
347.368	4.97241
350.26	42.646
353.153	80.1685
356.046	50.1279
358.938	92.5862
361.831	78.0051
364.724	92.5054
367.617	97.2466
370.509	58.6208
373.402	97.3994
376.295	75.6738
379.187	61.8596
382.08	54.5947
384.973	60.6585
387.865	73.2065
390.758	26.3179
393.651	77.3379
396.543	32.2505
399.436	77.0654
402.329	39.9778
405.222	68.405
408.114	16.3511
411.007	28.3816
413.9	46.1587
416.792	54.2778
419.685	8.4375
422.578	19.6482
425.471	42.752
428.363	38.7634
431.256	45.1941
434.149	57.2195
437.041	64.1628
439.934	40.2627
442.827	7.65601
445.719	14.8279
448.612	12.1123
451.505	20.6748
454.397	49.6899
457.29	9.81445
460.183	37.2942
463.076	66.114
465.968	44.0813
468.861	45.8547
471.754	28.1687
474.646	51.5024
477.539	38.7825
480.432	32.8887
483.324	46.9221
486.217	14.02
489.11	48.4009
492.002	37.9204
494.895	35.9045
497.788	61.2512
500.681	127.206
503.573	125.975
506.466	117.341
509.359	150.638
512.251	186.626
515.144	188.53
518.037	161.875
520.929	163.108
523.822	69.2583
526.715	125.825
529.608	81.5442
532.5	49.4316
535.393	69.3115
538.286	139.279
541.178	109.32
544.071	168.691
546.964	129.302
549.856	121.167
552.749	154.253
555.642	160.57
558.534	173.297
561.427	95.1165
564.32	103.307
567.213	56.5498
570.105	73.0996
572.998	50.2302
575.891	29.2285
578.783	72.5828
581.676	53.6411
584.569	8.28076
587.462	44.5913
590.354	15.0571
593.247	6.89575
596.14	43.0308
599.032	2.79321
601.925	51.0896
604.818	63.219
607.71	45.5884
610.603	23.2134
613.496	21.5408
616.389	24.6045
619.281	45.1355
622.174	33.7295
625.067	26.4429
627.959	75.9619
630.852	77.4719
633.745	16.3848
636.637	35.1103
639.53	11.6033
642.423	45.4375
645.316	37.5615
648.208	29.9031
651.101	4.40112
653.994	56.5271
656.886	7.36182
659.779	30.0808
662.672	60.1714
665.564	21.8369
668.457	53.5029
671.35	12.7222
674.242	40.4221
677.135	41.5901
680.028	50.5315
682.92	53.6621
685.813	37.8096
688.706	36.002
691.599	40.3225
694.491	60.3137
697.384	96.0183
700.277	34.469
703.169	53.1204
706.062	71.0828
708.955	41.3918
711.847	63.145
714.74	44.7656
717.633	66.904
720.526	74.8247
723.418	62.5823
726.311	64.1077
729.204	99.0735
732.096	12.8804
734.989	42.1409
737.882	42.8066
740.774	8.74536
743.667	34.824
746.56	62.751
749.453	25.5242
752.345	23.6633
755.238	31.739
758.131	3.68262
761.023	12.356
763.916	16.1328
766.809	0.67041
769.701	9.76953
772.594	27.6243
775.487	35.5872
778.38	21.1892
781.272	8.58398
784.165	17.7661
787.058	42.1912
789.95	60.083
792.843	53.7273
795.736	88.0364
798.628	155.618
801.521	249.445
804.414	263.916
807.307	340.146
810.199	416.111
813.092	420.291
815.985	313.54
818.877	281.127
821.77	203.851
824.663	132.735
827.555	99.5276
830.448	55.1079
833.341	53.9048
836.234	23.1487
839.126	32.4199
842.019	79.3186
844.912	71.1858
847.804	19.9409
850.697	34.5732
853.59	12.8889
856.482	17.9854
859.375	39.8748
862.268	16.6306
865.16	74.7324
868.053	44.654
870.946	34.6096
873.838	17.7752
876.731	30.2085
879.624	42.271
882.517	62.8359
885.409	16.0884
888.302	1.19824
891.195	66.9497
894.087	55.0144
896.98	53.7351
899.873	0.787109
902.765	73.9343
905.658	18.4416
908.551	69.5134
911.443	58.4028
914.336	86.8413
917.229	51.9578
920.122	34.6431
923.014	40.9778
925.907	61.7324
928.8	59.3403
931.692	24.9582
934.585	0.265381
937.478	38.8682
940.37	58.9158
943.263	27.0198
946.156	22.2739
949.049	70.2991
951.941	42.168
954.834	107.46
957.727	24.0178
960.619	65.884
963.512	19.9006
966.405	34.4775
969.298	37.0549
972.19	28.7253
975.083	10.855
977.976	66.2852
980.868	67.9331
983.761	35.2341
986.654	65.7432
989.546	63.5017
992.439	52.5493
995.332	4.23047
998.225	55.3757
1001.12	65.9983
1004.01	28.0671
1006.9	94.4651
1009.79	46.5049
1012.69	45.4832
1015.58	28.4915
1018.47	56.5466
1021.37	4.25513
1024.26	55.1133
1027.15	14.831
1030.04	5.26221
1032.94	2.34741
1035.83	49.5425
1038.72	42.3486
1041.62	50.1074
1044.51	12.3337
1047.4	24.8345
1050.29	66.9841
1053.19	49.7144
1056.08	30.7817
1058.97	51.0706
1061.86	36.1443
1064.76	18.5325
1067.65	13.4016
1070.54	25.6165
1073.43	35.3506
1076.33	68.4651
1079.22	71.8972
1082.11	86.9646
1085.01	28.2122
1087.9	97.2732
1090.79	53.9133
1093.68	105.755
1096.58	23.9541
1099.47	53.0308
1102.36	70.9946
1105.25	27.3789
1108.15	26.5095
1111.04	37.563
1113.93	24.2439
1116.83	95.2576
1119.72	69.9583
1122.61	10.5183
1125.5	63.6206
1128.4	9.38648
1131.29	59.1785
1134.18	69.0161
1137.07	35.3877
1139.97	36.8159
1142.86	43.5923
1145.75	20.7627
1148.64	13.9829
1151.54	43.9448
1154.43	41.0422
1157.32	51.3706
1160.21	20.3745
1163.11	24.103
1166	32.4744
1168.89	23.9419
1171.79	7.57446
1174.68	33.1487
1177.57	5.79248
1180.46	8.50317
1183.36	8.97192
1186.25	28.8635
1189.14	20.7786
1192.04	31.1331
1194.93	9.7854
1197.82	61.0894
1200.71	19.6487
1203.61	17.0295
1206.5	48.7598
1209.39	31.0122
1212.28	48.2842
1215.18	15.3938
1218.07	25.658
1220.96	33.5037
1223.86	54.7146
1226.75	69.4644
1229.64	3.35303
1232.53	25.3433
1235.43	75.9014
1238.32	74.7095
1241.21	35.8425
1244.1	34.8904
1247	2.75024
1249.89	61.2617
1252.78	42.874
1255.67	52.0918
1258.57	18.7681
1261.46	53.2192
1264.35	116.59
1267.24	87.0102
1270.14	25.3066
1273.03	46.9453
1275.92	46.8374
1278.82	98.4448
1281.71	5.11914
1284.6	100.477
1287.49	39.3935
1290.39	35.7632
1293.28	29.4961
1296.17	1.70117
