Measurement: Raman, 532 nm, unoriented, Raman Data Processed
Mineral: Umohoite
Rruff sample: R061135
Ideal chemistry: (UO_2_)Mo^6+^O_4_2H_2_O
Locality: Kyzulsai Mo-U deposit, south Kazakhstan
Source: Michael Scott
Description: Patches of dark green platy crystals
Raman shift (cm-1)	intensity
195.982	0
198.875	67.5591
201.767	77.7241
204.66	69.7978
207.553	116.187
210.446	54.501
213.338	18.9805
216.231	13.6977
219.124	15.8447
222.016	72.0996
224.909	97.5859
227.802	210.707
230.694	271.952
233.587	372.098
236.48	410.447
239.373	428.877
242.265	431.505
245.158	438.296
248.051	363.935
250.943	447.815
253.836	546.491
256.729	548.262
259.621	549.078
262.514	666.697
265.407	690.849
268.3	667.645
271.192	714.395
274.085	617.348
276.978	697.789
279.87	671.582
282.763	628.517
285.656	596.066
288.548	558.269
291.441	544.907
294.334	459.069
297.226	358.72
300.119	251.464
303.012	124.502
305.905	89.1245
308.797	10.5146
311.69	2.29785
314.583	13.1411
317.475	60.3374
320.368	82.332
323.261	1.32031
326.154	10.3472
329.046	94.7119
331.939	254.276
334.832	431.703
337.724	746.562
340.617	1043.31
343.51	1347.67
346.402	1672.91
349.295	2017.68
352.188	2362.27
355.081	2848.53
357.973	3299.31
360.866	3629.36
363.759	3755.22
366.651	3923.48
369.544	3963.16
372.437	3759.59
375.329	3476.85
378.222	3158.15
381.115	2806
384.008	2497.71
386.9	2170.47
389.793	1878.34
392.686	1731.68
395.578	1464.61
398.471	1299.89
401.364	1190.22
404.257	1023.67
407.149	952.518
410.042	863.048
412.935	773.012
415.827	695.007
418.72	643.43
421.613	514.882
424.505	471.373
427.398	389.617
430.291	279.871
433.183	176.403
436.076	195.928
438.969	58.0649
441.862	10.7315
444.754	3.06103
447.647	17.6494
450.54	71.8862
453.432	111.173
456.325	173.101
459.218	288.864
462.111	338.016
465.003	342.479
467.896	287.801
470.789	365.317
473.681	328.241
476.574	276.198
479.467	241.185
482.359	188.751
485.252	89.5122
488.145	35.1426
491.038	27.1445
493.93	3.69238
496.823	16.5078
499.716	29.1211
502.608	37.561
505.501	4.62866
508.394	14.1663
511.286	7.65845
514.179	21.7805
517.072	17.5454
519.965	127.761
522.857	103.52
525.75	172.481
528.643	166.479
531.535	224.019
534.428	227.579
537.321	259.554
540.213	315.402
543.106	293.724
545.999	334.24
548.891	363.892
551.784	398.796
554.677	391.249
557.57	472.053
560.462	431.58
563.355	435.908
566.248	449.3
569.14	445.439
572.033	439.635
574.926	478.009
577.818	516.005
580.711	538.864
583.604	559.207
586.497	572.285
589.389	527.612
592.282	539.28
595.175	477.039
598.067	425.762
600.96	356.233
603.853	365.546
606.745	272.469
609.638	233.376
612.531	245.565
615.424	158.965
618.316	100.854
621.209	65.4575
624.102	9.57373
626.994	16.0102
629.887	61.2402
632.78	71.6636
635.673	94.3193
638.565	156.401
641.458	92.5503
644.351	50.2422
647.243	60.2139
650.136	12.5581
653.029	134.876
655.921	170.402
658.814	313.106
661.707	461.943
664.6	709.128
667.492	996.597
670.385	1233.95
673.278	1585.97
676.17	1997.6
679.063	2305.31
681.956	2788.21
684.848	3202.41
687.741	3555.09
690.634	3891.38
693.527	4141.26
696.419	4416.02
699.312	4575.4
702.205	4756.65
705.097	4767.84
707.99	4863.25
710.883	4792.37
713.775	4783.83
716.668	4666.84
719.561	4724.19
722.454	4674.91
725.346	4812.34
728.239	4966.67
731.132	5152.04
734.024	5508.12
736.917	5839.38
739.81	6312.24
742.702	6490.8
745.595	6516.23
748.488	6542.5
751.381	6667.67
754.273	6865.17
757.166	6881.33
760.059	6649.04
762.951	6169.91
765.844	5707.23
768.737	5118.03
771.63	4677.53
774.522	4191.63
777.415	3644.49
780.308	3223.17
783.2	2671.88
786.093	2186.93
788.986	1762.44
791.878	1216.56
794.771	698.004
797.664	359.318
800.557	126.527
803.449	10.8291
806.342	147.259
809.235	164.6
812.127	236.954
815.02	171.72
817.913	31.1055
820.805	47.9902
823.698	204.812
826.591	264.372
829.484	455.766
832.376	529.247
835.269	528.115
838.162	537.189
841.054	384.896
843.947	347.063
846.84	219.462
849.732	172.531
852.625	119.127
855.518	35.7261
858.41	9.03809
861.303	20.8213
864.196	9.06396
867.089	7.5835
869.981	34.291
872.874	150.892
875.767	267.733
878.659	430.255
881.552	623.905
884.445	567.568
887.337	413.315
890.23	327.996
893.123	257.183
896.016	180.478
898.908	217.871
901.801	176.517
904.694	288.085
907.586	250.222
910.479	275.986
913.372	267.387
916.264	261.872
919.157	223.236
922.05	271.625
924.943	302.259
927.835	345.543
930.728	446.233
933.621	625.171
936.513	787.794
939.406	935.3
942.299	1071.17
945.192	1255.92
948.084	1338.7
950.977	1319.98
953.87	1304.87
956.762	1242.72
959.655	1174.27
962.548	1059.88
965.44	982.444
968.333	886.153
971.226	799.655
974.119	718.356
977.011	632.018
979.904	561.696
982.797	532.359
985.689	527.832
988.582	547.134
991.475	527.384
994.367	419.237
997.26	320.691
1000.15	111.245
1003.05	19.3127
1005.94	7.91162
1008.83	28.5918
1011.72	62.8611
1014.62	39.783
1017.51	18.5217
1020.4	6.93115
1023.29	16.4836
1026.19	16.5166
1029.08	17.9128
1031.97	41.2925
1034.87	28.6685
1037.76	62.1777
1040.65	106.381
1043.54	69.2117
1046.44	80.0852
1049.33	102.311
1052.22	86.6401
1055.11	104.062
1058.01	156.118
1060.9	98.9668
1063.79	51.3115
1066.68	109.967
1069.58	97.1804
1072.47	116.07
1075.36	66.8975
1078.26	20.8938
1081.15	49.2642
1084.04	40.0215
1086.93	97.8904
1089.83	36.6526
1092.72	46.8835
1095.61	28.3547
1098.51	34.9431
1101.4	53.0408
1104.29	69.3005
1107.18	67.6316
1110.08	32.4998
1112.97	33.1645
1115.86	21.1023
1118.75	10.7725
1121.65	53.4919
1124.54	26.8005
1127.43	3.45874
1130.32	22.9644
1133.22	21.8875
1136.11	21.8611
1139	11.2229
1141.89	40.3538
1144.79	8.84106
1147.68	45.0159
1150.57	40.8225
1153.47	42.1663
1156.36	7.82153
1159.25	54.3157
1162.14	18.6133
1165.04	0.791016
1167.93	2.29175
1170.82	33.3613
1173.71	0.141113
1176.61	46.0693
1179.5	14.0832
1182.39	31.3967
1185.29	0.609375
1188.18	18.7956
1191.07	1.2605
1193.96	18.8901
1196.86	13.0049
1199.75	43.5671
1202.64	19.8648
1205.54	27.6873
1208.43	29.6567
1211.32	16.9802
1214.21	39.1968
1217.11	24.136
1220	55.5432
1222.89	31.2329
1225.78	33.0281
1228.68	54.1758
1231.57	36.6821
1234.46	11.5576
1237.35	47.9644
1240.25	33.4883
1243.14	70.5247
1246.03	65.4802
1248.92	36.6675
1251.82	84.0452
1254.71	38.4673
1257.6	39.1091
1260.5	43.6072
1263.39	45.2227
1266.28	40.4863
1269.17	26.5315
1272.07	36.0688
1274.96	23.228
1277.85	41.1841
1280.74	38.7463
1283.64	44.8279
1286.53	37.6316
1289.42	0.540039
1292.32	37.4619
1295.21	18.9375
1298.1	0.223145
1300.99	0
