Measurement: Raman, 785 nm, unoriented, Raman Data Processed
Mineral: Umohoite
Rruff sample: R061135
Ideal chemistry: (UO_2_)Mo^6+^O_4_2H_2_O
Locality: Kyzulsai Mo-U deposit, south Kazakhstan
Source: Michael Scott
Description: Patches of dark green platy crystals
Raman shift (cm-1)	intensity
155.54	0
158.433	33.669
161.326	158.108
164.218	658.844
167.111	1152.36
170.004	1405.31
172.897	1400.49
175.789	1402.26
178.682	1471.01
181.575	1606.78
184.467	1786.06
187.36	1789.71
190.253	1844.72
193.145	1744.16
196.038	1565.67
198.931	1454.61
201.823	1468.63
204.716	1074.93
207.609	878.227
210.501	632.574
213.394	542.939
216.287	554.463
219.18	559.652
222.072	562.803
224.965	577.606
227.858	670.623
230.75	910.75
233.643	1132.6
236.536	1375.82
239.429	1734.13
242.321	1857.28
245.214	1899.3
248.107	2038.9
250.999	1993.8
253.892	2050.97
256.785	2028.68
259.677	2179.03
262.57	2299.12
265.463	2322.27
268.356	2573.28
271.248	2656.86
274.141	2822.76
277.034	2923.22
279.926	2778.01
282.819	2717.38
285.712	2750.57
288.604	2422.41
291.497	2138.42
294.39	1962.54
297.283	1490.21
300.175	1432.15
303.068	1269.94
305.961	980.586
308.853	773.533
311.746	475.797
314.639	319.059
317.531	38.1348
320.424	94.8398
323.317	223.678
326.209	185.459
329.102	231.152
331.995	56.2695
334.888	94.7695
337.78	302.553
340.673	586.109
343.566	970.533
346.458	1360.14
349.351	1902.49
352.244	2270.02
355.137	2578.94
358.029	2700.78
360.922	2913.83
363.815	2775.39
366.707	2901.65
369.6	3057.19
372.493	3151.16
375.385	2992.26
378.278	2969.99
381.171	2693.94
384.063	2498.67
386.956	2400.97
389.849	2287.7
392.742	2162.15
395.634	1976.98
398.527	1808.22
401.42	1788.24
404.312	1790.31
407.205	1597.51
410.098	1600.43
412.99	1519.8
415.883	1503.37
418.776	1550.22
421.669	1559.35
424.561	1453.1
427.454	1214.19
430.347	1008.99
433.239	881.848
436.132	670.191
439.025	546.1
441.918	342.644
444.81	183.639
447.703	145.877
450.596	97.3867
453.488	138.516
456.381	102.83
459.274	244.769
462.166	350.545
465.059	571.828
467.952	772.799
470.844	943.15
473.737	981.252
476.63	966.754
479.523	1073.15
482.415	789.721
485.308	721.57
488.201	455.978
491.093	438.893
493.986	127.109
496.879	110.797
499.772	6.57812
502.664	64.3535
505.557	34.5801
508.45	24.9863
511.342	11.707
514.235	66.1504
517.128	41.9062
520.02	39.0625
522.913	27.0215
525.806	127.644
528.698	114.721
531.591	214.498
534.484	263.408
537.377	300.398
540.269	368.818
543.162	329.324
546.055	561.785
548.947	516.244
551.84	474.465
554.733	611.805
557.625	602.606
560.518	709.519
563.411	727.062
566.303	741.373
569.196	765.809
572.089	713.01
574.982	669.537
577.874	714.481
580.767	727.25
583.66	709.16
586.552	660.496
589.445	543.422
592.338	496.266
595.231	384.408
598.123	486.315
601.016	465.445
603.909	406.441
606.801	420.656
609.694	297.643
612.587	310.312
615.479	221.481
618.372	204.125
621.265	153.508
624.158	38.7539
627.05	34.0117
629.943	75.1055
632.836	63.1465
635.728	113.123
638.621	116.916
641.514	17.3945
644.406	39.8867
647.299	140.076
650.192	147.176
653.085	67.7227
655.977	25.0273
658.87	11.9375
661.763	7.62109
664.655	193.967
667.548	233.508
670.441	322.994
673.333	385.857
676.226	544.35
679.119	745.379
682.011	895.178
684.904	1005.1
687.797	1339.33
690.69	1595.46
693.582	1665.57
696.475	1911.83
699.368	1979.53
702.26	2110.77
705.153	2240.59
708.046	2154.06
710.938	2186.45
713.831	2065.31
716.724	1950.64
719.617	1754.85
722.509	1670.88
725.402	1558.74
728.295	1455.97
731.187	1369.68
734.08	1361.35
736.973	1465.86
739.865	1527.13
742.758	1851.06
745.651	2211.91
748.544	2766.22
751.436	3345.05
754.329	4140.14
757.222	4820.15
760.114	5587.35
763.007	6376.23
765.9	6816.81
768.793	7145.48
771.685	7046.8
774.578	7016.73
777.471	6633.12
780.363	6118.26
783.256	5546.39
786.149	4859.52
789.041	4144.09
791.934	3415.94
794.827	2698.93
797.72	2239.31
800.612	1638.88
803.505	1421.84
806.398	1194.75
809.29	947.789
812.183	833.375
815.076	812.291
817.968	567.242
820.861	432.394
823.754	351.203
826.646	308.078
829.539	84.1582
832.432	18.3613
835.325	79.1113
838.217	192.693
841.11	139.725
844.003	88.1426
846.895	42.3516
849.788	31.9902
852.681	1.96484
855.573	23.6875
858.466	29.9277
861.359	49.0605
864.252	19.6592
867.144	90.4766
870.037	22.874
872.93	86.6875
875.822	39.3418
878.715	181.99
881.608	329.982
884.5	285.041
887.393	324.898
890.286	471.985
893.179	517.731
896.071	515.379
898.964	482.682
901.857	554.097
904.749	544.791
907.642	574.394
910.535	651.803
913.428	637.193
916.32	731.891
919.213	715.196
922.106	825.316
924.998	831.11
927.891	1039.3
930.784	1111.57
933.676	1270.94
936.569	1498.92
939.462	1613.99
942.355	1713.98
945.247	1786.67
948.14	1831.15
951.033	1946.6
953.925	2032.19
956.818	1917.67
959.711	1894.09
962.603	1872.25
965.496	1707.36
968.389	1455.18
971.281	1379.54
974.174	1236.22
977.067	1046.62
979.96	1010.62
982.852	811.335
985.745	652.513
988.638	527.393
991.53	462.082
994.423	339.981
997.316	303.275
1000.21	74.2324
1003.1	25.5488
1005.99	50.876
1008.89	31.2354
1011.78	17.7168
1014.67	33.25
1017.57	44.9424
1020.46	15.332
1023.35	37.7861
1026.24	36.4971
1029.13	25.7705
1032.03	47.5449
1034.92	65.083
1037.81	192.977
1040.71	56.8838
1043.6	73.3477
1046.49	49.8486
1049.38	30.1299
1052.28	41.3555
1055.17	58.1592
1058.06	135.702
1060.95	131.852
1063.85	96.8496
1066.74	88.2412
1069.63	149.084
1072.53	105.096
1075.42	77.4453
1078.31	75.4219
1081.2	183.905
1084.1	146.67
1086.99	122.449
1089.88	172.685
1092.78	141.24
1095.67	137.707
1098.56	129.548
1101.45	104.48
1104.35	190.261
1107.24	219.117
1110.13	217.253
1113.02	232.862
1115.92	243.467
1118.81	170.049
1121.7	322.425
1124.59	227.703
1127.49	205.792
1130.38	350.047
1133.27	210.697
1136.16	250.581
1139.06	429.667
1141.95	402.572
1144.84	367.976
1147.74	220.156
1150.63	173.324
1153.52	178.762
1156.41	149.947
1159.31	232.899
1162.2	169.827
1165.09	41.1143
1167.98	113.859
1170.88	127.763
1173.77	84.4512
1176.66	18.2656
1179.56	58.3662
1182.45	32.8506
1185.34	64.4971
1188.23	31.7119
1191.13	20.5078
1194.02	80.5615
1196.91	74.9961
1199.81	65.2842
1202.7	39.3184
1205.59	24.0811
1208.48	73.3936
1211.38	93.1377
1214.27	61.1758
1217.16	59.9004
1220.05	40.5762
1222.95	49.7373
1225.84	2.75293
1228.73	35.3359
1231.62	106.013
1234.52	166.661
1237.41	71.8555
1240.3	123.569
1243.19	2.7832
1246.09	0
