Measurement: Raman, 532 nm, unoriented, Raman Data Processed
Mineral: unknown
Rruff sample: R130092
Locality: Palermo No. 1 mine, Groton, New Hampshire, USA
Source: Benjamin N. Schumer
Description: This is the new Na-palermoite, ideally Na2SrAl4(PO4)4(OH)4
Measured chemistry: (Na_1.70_Li_0.30_)_2.00_(Sr_0.96_Ca_0.02_Ba_0.01_)(Al_3.83_Mg_0.04_Mn_0.03_Fe_0.03_)(PO_4_)_4.06_(OH)_4.00_
Raman shift (cm-1)	intensity
204.105	0
206.998	2.07748
209.891	2.37267
212.784	0.073883
215.676	1.14098
218.569	6.32097
221.462	8.51993
224.354	11.0295
227.247	15.2104
230.14	15.779
233.032	17.6574
235.925	20.0419
238.818	25.368
241.71	21.0011
244.603	18.4478
247.496	18.8885
250.389	17.7996
253.281	15.3569
256.174	9.74646
259.067	8.04791
261.959	3.89354
264.852	2.34607
267.745	6.21208
270.637	6.46155
273.53	8.50642
276.423	6.61989
279.316	6.70529
282.208	3.84492
285.101	1.2639
287.994	0.872955
290.886	0.048752
293.779	0.025513
296.672	3.86746
299.565	7.07674
302.457	12.7322
305.35	21.8964
308.243	29.7894
311.135	40.1446
314.028	57.1643
316.921	76.038
319.813	78.2009
322.706	65.7159
325.599	46.5296
328.491	36.2477
331.384	32.78
334.277	27.6685
337.17	24.434
340.062	18.1816
342.955	12.1913
345.848	8.22835
348.74	5.72783
351.633	4.02063
354.526	1.02251
357.418	0.391754
360.311	2.28157
363.204	0.425308
366.097	0.034775
368.989	0.602829
371.882	1.20633
374.775	0.389374
377.667	0.649338
380.56	1.32512
383.453	0.612015
386.346	3.08583
389.238	5.70927
392.131	10.2558
395.024	14.9601
397.916	19.6632
400.809	27.4291
403.702	33.1397
406.594	42.9632
409.487	47.8135
412.38	51.3804
415.272	48.2537
418.165	49.547
421.058	52.4616
423.951	57.6052
426.843	66.9833
429.736	77.2225
432.629	68.0603
435.521	48.8491
438.414	33.1803
441.307	22.3292
444.2	13.2842
447.092	9.51984
449.985	6.71617
452.878	3.73689
455.77	2.34587
458.663	1.80864
461.556	0.4944
464.448	0.066544
467.341	0.337402
470.234	1.04623
473.127	0.074142
476.019	1.17177
478.912	2.52332
481.805	1.90158
484.697	0.818817
487.59	0.874756
490.483	2.25137
493.375	2.30795
496.268	2.05023
499.161	4.74793
502.053	6.92529
504.946	9.59001
507.839	15.1763
510.732	17.5532
513.624	23.1363
516.517	28.7314
519.41	34.9947
522.302	37.2767
525.195	37.7219
528.088	31.5969
530.981	24.0401
533.873	16.2049
536.766	11.9042
539.659	6.95148
542.551	4.93437
545.444	2.41489
548.337	1.99649
551.229	1.65122
554.122	0.526764
557.015	0.159134
559.908	0.359497
562.8	0.136215
565.693	0.674835
568.586	0.393341
571.478	0.68306
574.371	1.88344
577.264	2.62978
580.156	6.63423
583.049	9.61972
585.942	15.0773
588.835	19.5717
591.727	19.9005
594.62	24.5389
597.513	15.5994
600.405	11.1918
603.298	7.44015
606.191	5.67442
609.083	7.54149
611.976	12.988
614.869	15.5573
617.761	19.6153
620.654	21.7735
623.547	20.8021
626.44	17.6488
629.332	17.1642
632.225	16.222
635.118	19.0693
638.01	21.0551
640.903	20.7396
643.796	17.2318
646.688	13.4724
649.581	9.33325
652.474	4.43768
655.367	4.07712
658.259	1.74985
661.152	1.63718
664.045	1.16788
666.937	0.419403
669.83	0.346313
672.723	0.033508
675.615	0.73468
678.508	0.011688
681.401	0.944885
684.294	0.778656
687.186	1.99045
690.079	1.96109
692.972	1.18051
695.864	0.760895
698.757	1.655
701.65	0.314636
704.543	0.097626
707.435	1.58102
710.328	3.96567
713.221	0.804688
716.113	1.6174
719.006	3.43643
721.899	1.12189
724.791	2.90344
727.684	1.74213
730.577	0.492065
733.47	0.328156
736.362	0.374481
739.255	1.84222
742.148	0.993805
745.04	1.64789
747.933	1.34888
750.826	2.1536
753.718	7.7214
756.611	2.44598
759.504	4.82764
762.396	1.5813
765.289	1.21384
768.182	2.27295
771.075	2.85877
773.967	1.50998
776.86	2.14505
779.753	0.670898
782.645	0.037018
785.538	0.818481
788.431	0.187927
791.323	0.665222
794.216	2.24445
797.109	0.538269
800.002	0.141907
802.894	0.934692
805.787	0.762512
808.68	0.431702
811.572	1.61682
814.465	0.932312
817.358	0.898407
820.25	2.24338
823.143	3.7211
826.036	4.24286
828.929	2.94177
831.821	2.85477
834.714	3.03241
837.607	5.72482
840.499	5.00375
843.392	4.8346
846.285	6.15454
849.178	7.00357
852.07	5.68991
854.963	6.17627
857.856	7.96951
860.748	6.02942
863.641	4.78229
866.534	3.48264
869.426	4.06625
872.319	1.78244
875.212	2.20047
878.105	1.06995
880.997	0.637482
883.89	0.003448
886.783	0.625397
889.675	0.901489
892.568	2.15936
895.461	0.291748
898.353	0.520233
901.246	0.309143
904.139	0.893494
907.032	0.356598
909.924	1.71317
912.817	3.00766
915.71	4.52539
918.602	7.28842
921.495	10.3524
924.388	15.6668
927.28	22.9259
930.173	25.6462
933.066	32.7495
935.958	33.8035
938.851	31.1855
941.744	25.3306
944.637	16.1826
947.529	14.4004
950.422	10.3353
953.315	8.30835
956.207	7.73895
959.1	9.0235
961.993	11.749
964.885	17.9244
967.778	19.6566
970.671	22.5735
973.564	27.8864
976.456	31.4287
979.349	31.9973
982.242	33.8354
985.134	36.1398
988.027	40.2068
990.92	45.0784
993.812	52.8489
996.705	61.7089
999.598	69.3135
1002.49	74.9831
1005.38	85.1799
1008.28	86.2336
1011.17	74.9304
1014.06	55.7035
1016.95	37.1989
1019.85	26.405
1022.74	17.8566
1025.63	12.1479
1028.53	6.97992
1031.42	3.31812
1034.31	0.360657
1037.2	1.71875
1040.1	1.46994
1042.99	0.116547
1045.88	0.135559
1048.77	0.197815
1051.67	0.361511
1054.56	0.271759
1057.45	2.55725
1060.35	2.85385
1063.24	6.01755
1066.13	11.7922
1069.02	18.6178
1071.91	24.962
1074.81	34.2962
1077.7	41.2132
1080.59	44.3917
1083.49	32.551
1086.38	21.1057
1089.27	11.8516
1092.16	7.39352
1095.06	5.00803
1097.95	2.05423
1100.84	2.32355
1103.73	1.11035
1106.63	1.13223
1109.52	0.433258
1112.41	2.27322
1115.31	3.08481
1118.2	6.19489
1121.09	7.42786
1123.98	12.1601
1126.88	19.5006
1129.77	28.3596
1132.66	43.2525
1135.56	52.6402
1138.45	62.7298
1141.34	75.5305
1144.23	65.3883
1147.13	41.9282
1150.02	24.2812
1152.91	15.12
1155.8	8.44028
1158.7	3.28241
1161.59	4.12897
1164.48	3.95712
1167.38	0.330444
1170.27	0.162323
1173.16	1.99857
1176.05	4.19818
1178.94	3.71738
1181.84	0.632111
1184.73	1.51608
1187.62	2.58935
1190.52	0.881134
1193.41	2.34445
1196.3	0.772095
1199.19	2.9722
1202.09	1.61282
1204.98	3.30008
1207.87	3.99368
1210.77	4.75775
1213.66	5.61325
1216.55	4.5239
1219.44	10.2424
1222.34	3.13168
1225.23	4.55719
1228.12	2.06552
1231.01	3.3287
1233.91	0.120087
1236.8	4.16287
1239.69	2.74948
1242.59	4.80353
1245.48	3.20142
1248.37	4.48941
1251.26	4.00278
1254.16	1.28937
1257.05	2.46429
1259.94	4.27615
1262.83	3.29871
1265.73	2.15561
1268.62	5.73505
1271.51	3.71866
1274.4	5.58695
1277.3	0.632935
1280.19	2.17493
1283.08	5.38751
1285.97	4.08878
1288.87	1.38782
1291.76	1.65536
1294.65	2.23645
1297.55	0.076355
1300.44	0.896057
