Measurement: Raman, 532 nm, unoriented, Raman Data Processed
Mineral: unknown
Rruff sample: R140539
Locality: Palermo No. 1 mine, Groton, New Hampshire, USA
Source: Benjamin N. Schumer
Description: Dark or reddish brown prismatic crystals, associated with grey bladed eosphorite, colorless or white prismatic palermoite (R120141), and natropalermoite (130092). To be called lefontite
Measured chemistry: Be_0.97_(Fe^2+^_1.22_Mn_0.48_Ca_0.16_Mg_0.05_)_Î£=1.91_Al_1.91_(PO_4_)_2_(OH)_6.50_ ; Be2+ needs to be analyzed by Icp-ms
Raman shift (cm-1)	intensity
108.104	0
111.478	12.7632
114.853	29.3653
118.228	33.3155
121.603	27.54
124.978	27.3631
128.352	23.696
131.727	23.1125
135.102	20.5541
138.477	17.1226
141.852	9.42539
145.227	5.69556
148.601	0.116577
151.976	1.47385
155.351	1.09161
158.726	0.43985
162.101	2.52081
165.476	0.231964
168.85	0.552643
172.225	2.48843
175.6	6.7641
178.975	7.50769
182.35	10.2879
185.724	12.0768
189.099	14.8535
192.474	18.7246
195.849	17.3544
199.224	14.3847
202.599	16.8434
205.973	15.2796
209.348	13.7607
212.723	14.5042
216.098	16.5427
219.473	14.795
222.847	15.8418
226.222	19.0553
229.597	19.3246
232.972	14.6933
236.347	15.34
239.721	14.7092
243.096	13.0557
246.471	12.386
249.846	11.6714
253.221	12.5458
256.596	12.0272
259.97	15.6516
263.345	15.2854
266.72	17.3579
270.095	18.7489
273.47	23.2869
276.844	24.5007
280.219	22.9061
283.594	23.4748
286.969	25.0325
290.344	27.7976
293.719	29.8195
297.093	31.9053
300.468	32.8014
303.843	34.7543
307.218	35.6251
310.593	36.267
313.967	32.8163
317.342	31.7421
320.717	25.9787
324.092	24.1304
327.467	18.6438
330.842	14.6678
334.216	12.0013
337.591	8.21137
340.966	2.55747
344.341	1.6026
347.716	1.82675
351.091	2.38519
354.465	3.0589
357.84	1.81177
361.215	0.175842
364.59	0.386902
367.964	3.60657
371.339	8.86542
374.714	12.9098
378.089	18.668
381.464	23.4903
384.839	26.7558
388.213	27.9957
391.588	30.92
394.963	34.6328
398.338	40.066
401.713	45.017
405.087	54.5153
408.462	56.5931
411.837	62.1678
415.212	69.4971
418.587	74.6989
421.962	72.908
425.336	69.5772
428.711	64.3301
432.086	51.7401
435.461	45.3871
438.836	33.9671
442.211	26.7623
445.585	22.109
448.96	11.3789
452.335	7.94952
455.71	4.35956
459.085	3.52701
462.459	2.43518
465.834	0.044586
469.209	0.365417
472.584	0.868683
475.959	0.932251
479.334	0.608704
482.708	1.80051
486.083	5.41238
489.458	10.8359
492.833	15.2681
496.208	18.3414
499.582	22.9661
502.957	25.3001
506.332	27.1302
509.707	26.5176
513.082	24.4966
516.457	22.5052
519.831	19.1216
523.206	15.2904
526.581	10.6824
529.956	6.9996
533.331	3.51407
536.705	1.15692
540.08	0.292206
543.455	2.00491
546.83	0.430481
550.205	1.70715
553.58	4.34448
556.954	9.01022
560.329	11.4377
563.704	15.9446
567.079	19.5994
570.454	23.5303
573.828	27.0979
577.203	32.6618
580.578	34.1512
583.953	40.5865
587.328	47.5622
590.702	62.5658
594.077	74.5053
597.452	86.2331
600.827	94.8476
604.202	93.9378
607.577	84.4304
610.951	70.3225
614.326	52.1603
617.701	37.7923
621.076	25.741
624.451	17.7391
627.825	13.108
631.2	10.4096
634.575	9.87143
637.95	10.3584
641.325	10.2243
644.699	11.1283
648.074	10.0707
651.449	9.47928
654.824	7.63812
658.199	6.68927
661.574	5.32532
664.948	0.27269
668.323	0.980179
671.698	0.818939
675.073	0.400726
678.448	1.80629
681.822	0.670944
685.197	0.62561
688.572	2.43823
691.947	3.88344
695.322	6.09868
698.697	5.0081
702.071	7.73572
705.446	8.42779
708.821	7.66319
712.196	7.1219
715.571	8.50949
718.946	7.75798
722.32	8.51417
725.695	7.6514
729.07	7.9467
732.445	5.54643
735.82	5.11284
739.194	3.94995
742.569	3.55688
745.944	3.87758
749.319	3.01733
752.694	3.62474
756.068	2.27365
759.443	2.50966
762.818	0.773529
766.193	2.28441
769.568	0.029068
772.943	0.893768
776.317	0.934006
779.692	0.415939
783.067	0.009933
786.442	1.22147
789.817	2.18053
793.192	3.42455
796.566	2.64248
799.941	5.9638
803.316	5.19047
806.691	8.75444
810.066	9.08781
813.44	7.90247
816.815	10.0451
820.19	10.4507
823.565	11.2402
826.94	11.1956
830.314	11.9003
833.689	13.2155
837.064	12.6573
840.439	11.9809
843.814	11.2102
847.188	12.1237
850.563	12.2747
853.938	12.8182
857.313	11.288
860.688	12.2134
864.063	11.0613
867.437	10.3535
870.812	10.7718
874.187	8.40954
877.562	8.30008
880.937	5.92142
884.312	5.68064
887.686	4.73112
891.061	4.89036
894.436	3.73098
897.811	2.97944
901.186	1.57767
904.56	0.197174
907.935	0.30658
911.31	1.39448
914.685	1.04442
918.06	1.048
921.434	0.778625
924.809	0.877197
928.184	0.47522
931.559	1.7133
934.934	2.19424
938.309	3.09929
941.683	4.71248
945.058	8.99803
948.433	10.6583
951.808	16.4707
955.183	19.043
958.558	27.0004
961.932	30.2457
965.307	39.232
968.682	48.0548
972.057	55.9597
975.432	62.5782
978.806	64.502
982.181	65.0825
985.556	60.2276
988.931	51.9219
992.306	44.609
995.681	35.7019
999.055	29.0369
1002.43	23.0747
1005.8	17.1795
1009.18	13.3662
1012.55	9.4232
1015.93	7.33521
1019.3	4.04912
1022.68	0.854538
1026.05	1.15552
1029.43	0.175797
1032.8	0.027145
1036.18	1.3284
1039.55	2.82002
1042.93	6.7458
1046.3	10.7752
1049.68	14.9022
1053.05	21.162
1056.43	27.5636
1059.8	29.0662
1063.18	35.6923
1066.55	40.5574
1069.93	40.5893
1073.3	43.8856
1076.68	42.4433
1080.05	39.3844
1083.43	36.3784
1086.8	31.7156
1090.17	28.5054
1093.55	25.04
1096.92	23.2147
1100.3	20.2334
1103.67	17.4411
1107.05	16.2035
1110.42	16.5788
1113.8	17.6437
1117.17	15.9919
1120.55	13.8092
1123.92	11.5008
1127.3	11.0695
1130.67	9.24725
1134.05	7.18062
1137.42	5.5911
1140.8	4.13782
1144.17	2.51976
1147.55	0.898987
1150.92	0.870361
1154.3	0.548782
1157.67	1.64612
1161.05	0.8479
1164.42	0.385651
1167.8	0.92749
1171.17	1.05407
1174.55	0.354301
1177.92	0.075478
1181.3	0.71711
1184.67	1.34285
1188.05	1.66459
1191.42	2.91312
1194.8	3.28459
1198.17	3.692
1201.54	4.55796
1204.92	5.55997
1208.29	6.47041
1211.67	5.68053
1215.04	5.24923
1218.42	5.63675
1221.79	6.98012
1225.17	7.06708
1228.54	7.0167
1231.92	6.60533
1235.29	5.25404
1238.67	6.03041
1242.04	6.44226
1245.42	7.57437
1248.79	7.64091
1252.17	8.16102
1255.54	6.77217
1258.92	6.21638
1262.29	6.24182
1265.67	5.30424
1269.04	4.72488
1272.42	3.87608
1275.79	3.82114
1279.16	3.42932
1282.54	1.93016
1285.91	2.96062
1289.29	2.19753
1292.66	0.486061
1296.04	0.748802
1299.41	0.04509
