Measurement: Raman, 532 nm, unoriented, Raman Data Processed
Mineral: unknown
Rruff sample: R140401
Locality: Rowley mine, Maricopa County, Arizona, USA
Source: Bob Jenkins
Description: Blue platy crystals, associated with colorless tabular simonkolleite (R130616). The compound was found on an iron wire with the chemical formula CuZnCl(OH)3
Raman shift (cm-1)	intensity
90.2653	0
93.6401	1.31403
97.0149	0.229828
100.39	5.64154
103.765	15.3715
107.139	31.8646
110.514	51.2603
113.889	81.3468
117.264	104.935
120.639	81.7002
124.013	35.6057
127.388	10.2172
130.763	1.58322
134.138	1.46887
137.513	2.05077
140.888	12.3036
144.262	29.7098
147.637	55.289
151.012	95.8652
154.387	151.745
157.762	217.643
161.137	274.668
164.511	283.031
167.886	236.068
171.261	172.778
174.636	120.322
178.011	88.5089
181.385	68.1739
184.76	56.3552
188.135	50.1656
191.51	49.3752
194.885	50.7631
198.26	59.3556
201.634	68.8132
205.009	84.0216
208.384	97.4113
211.759	108.755
215.133	106.281
218.508	86.0207
221.883	59.8905
225.258	40.6799
228.633	27.6192
232.008	18.5987
235.382	11.3682
238.757	7.99913
242.132	5.14785
245.507	3.17084
248.882	2.02587
252.256	1.26641
255.631	2.25589
259.006	2.48615
262.381	1.91235
265.756	1.3482
269.131	0.458557
272.505	1.5883
275.88	3.71018
279.255	1.39084
282.63	1.95966
286.005	1.60936
289.38	3.57238
292.754	9.00806
296.129	18.2762
299.504	31.8164
302.879	51.1854
306.254	76.7542
309.628	110.389
313.003	155.82
316.378	194.117
319.753	200.323
323.128	164.032
326.502	112.541
329.877	70.3234
333.252	44.2336
336.627	29.2767
340.002	22.104
343.377	21.1272
346.751	24.4751
350.126	33.4395
353.501	46.7228
356.876	57.7004
360.251	63.9713
363.625	58.0053
367	47.1272
370.375	33.2378
373.75	20.392
377.125	11.3683
380.5	4.38867
383.874	1.31085
387.249	2.18491
390.624	1.89278
393.999	0.123581
397.374	5.29463
400.748	10.1082
404.123	18.2159
407.498	21.1051
410.873	23.984
414.248	27.4772
417.623	32.8728
420.997	44.1899
424.372	56.4597
427.747	73.9175
431.122	90.6004
434.497	113.703
437.872	144.15
441.246	187.893
444.621	239.06
447.996	291.115
451.371	324.988
454.745	316.128
458.12	279.54
461.495	237.085
464.87	213.773
468.245	199.936
471.62	190.694
474.994	166.832
478.369	134.148
481.744	102.389
485.119	75.8833
488.494	56.6463
491.868	36.4645
495.243	24.3334
498.618	14.3572
501.993	7.01177
505.368	2.33357
508.743	0.258255
512.117	1.01738
515.492	1.62582
518.867	1.45758
522.242	1.4372
525.617	0.096786
528.991	0.361259
532.366	1.67226
535.741	2.65118
539.116	2.82418
542.491	3.46951
545.866	3.56224
549.24	5.49776
552.615	5.45264
555.99	5.40267
559.365	6.27025
562.74	5.96001
566.115	6.10208
569.489	6.73361
572.864	5.99847
576.239	5.68783
579.614	5.55912
582.989	3.86437
586.363	4.35233
589.738	4.07561
593.113	3.30045
596.488	2.98441
599.863	2.70608
603.237	2.43097
606.612	1.60715
609.987	1.37046
613.362	0.997833
616.737	1.90934
620.112	0.0513
623.486	0.754707
626.861	0.310593
630.236	0.17469
633.611	0.520134
636.986	1.33486
640.361	2.11643
643.735	2.88566
647.11	4.02132
650.485	5.9199
653.86	7.19088
657.235	8.89227
660.609	10.4544
663.984	11.5723
667.359	13.6893
670.734	15.0505
674.109	19.8877
677.484	18.407
680.858	18.0059
684.233	17.0825
687.608	15.4069
690.983	11.6333
694.357	9.53194
697.732	7.64241
701.107	6.71294
704.482	4.34875
707.857	2.72454
711.232	3.18726
714.606	1.1688
717.981	1.45152
721.356	0.496323
724.731	0.110924
728.106	0.082695
731.481	0.120491
734.855	0.161934
738.23	0.669762
741.605	0.444504
744.98	0.479584
748.355	1.01388
751.729	1.64673
755.104	2.52312
758.479	3.23624
761.854	4.48933
765.229	5.95754
768.604	8.13351
771.978	8.54985
775.353	10.7189
778.728	12.8143
782.103	13.7863
785.478	16.493
788.852	18.5861
792.227	20.1222
795.602	20.299
798.977	20.5717
802.352	21.0624
805.726	18.0146
809.101	16.3778
812.476	11.7881
815.851	8.4889
819.226	7.4833
822.601	6.33244
825.975	6.2776
829.35	6.5452
832.725	7.06436
836.1	8.26263
839.475	11.0043
842.85	14.0678
846.224	17.6301
849.599	20.1723
852.974	23.1504
856.349	25.8138
859.724	25.8093
863.098	25.0159
866.473	22.7473
869.848	17.9474
873.223	14.8342
876.598	10.2453
879.972	6.91477
883.347	4.47424
886.722	3.25077
890.097	1.97256
893.472	1.73154
896.847	0.91571
900.221	0.263573
903.596	0.223373
906.971	0.062874
910.346	0.30481
913.721	0.166107
917.096	0.513649
920.47	0.174576
923.845	0.248314
927.22	0.144104
930.595	0.294815
933.97	0.823288
937.344	0.62413
940.719	1.30774
944.094	1.65409
947.469	2.62237
950.844	3.60634
954.218	3.56424
957.593	4.10054
960.968	4.7632
964.343	4.40848
967.718	4.53901
971.092	5.05431
974.467	4.01466
977.842	3.21957
981.217	3.31039
984.592	2.44975
987.967	2.70322
991.341	1.37117
994.716	1.36317
998.091	0.865875
1001.47	1.5437
1004.84	0.89296
1008.22	0.309402
1011.59	0.47084
1014.97	0.000214
1018.34	1.08945
1021.72	1.19739
1025.09	0.916931
1028.46	0.579636
1031.84	0.146049
1035.21	1.33653
1038.59	0.99527
1041.96	1.26328
1045.34	0.91909
1048.71	1.07326
1052.09	0.778374
1055.46	0.530479
1058.84	0.773605
1062.21	0.819084
1065.59	0.524475
1068.96	0.652908
1072.34	0.423355
1075.71	0.698853
1079.09	1.32358
1082.46	0.717361
1085.84	0.030655
1089.21	0.797569
1092.59	0.464386
1095.96	0.606949
1099.34	0.749741
1102.71	1.0534
1106.09	1.19994
1109.46	1.09408
1112.84	1.42552
1116.21	1.06767
1119.58	0.788834
1122.96	0.450584
1126.33	0.709496
1129.71	0.202148
1133.08	0.541977
1136.46	0.253052
1139.83	0.378212
1143.21	0.638466
1146.58	0.510284
1149.96	1.57407
1153.33	0.333199
1156.71	0.613289
1160.08	0.050476
1163.46	0.332191
1166.83	0.839363
1170.21	0.523705
1173.58	0.043022
1176.96	0.76458
1180.33	0.705467
1183.71	0.285995
1187.08	1.22295
1190.46	0.464828
1193.83	0.166573
1197.2	0.369026
1200.58	0.839455
1203.95	0.06469
1207.33	0.257172
1210.7	0.20533
1214.08	0.032791
1217.45	1.33309
1220.83	0.19883
1224.2	0.413887
1227.58	0.078941
1230.95	0.194824
1234.33	0.689034
1237.7	0.713844
1241.08	0.83432
1244.45	1.05418
1247.83	0.666298
1251.2	0.947906
1254.58	1.00141
1257.95	1.37556
1261.33	1.34026
1264.7	0.29644
1268.08	0.408134
1271.45	0.521164
1274.83	1.06423
1278.2	0.047699
1281.58	0.820656
1284.95	0.580879
1288.33	0.844765
1291.7	1.72946
1295.08	1.14254
1298.45	1.66586
1301.83	0
