Measurement: Raman, 532 nm, unoriented, Raman Data Processed
Mineral: unknown
Rruff sample: R140428
Locality: João Teodoro mine, Linópolis district, Divino das Laranjeiras, Minas Gerais, Brazil
Source: Michael Scott
Description: Brown prismatic crystals, associated with light-brown greifensteinite (R060588), dark green acicular gormantie (R080075), and white fine-grained leucophosphite. To be known as lefontite
Raman shift (cm-1)	intensity
110.514	0
113.889	18.5305
117.264	26.8997
120.639	23.2564
124.013	21.5123
127.388	13.7272
130.763	12.5442
134.138	11.3944
137.513	14.2336
140.888	13.0107
144.262	7.22766
147.637	6.10114
151.012	0.102234
154.387	0.127075
157.762	3.20795
161.137	0.669495
164.511	1.32849
167.886	4.43616
171.261	8.71912
174.636	12.8267
178.011	21.0998
181.385	25.6509
184.76	32.1798
188.135	34.3669
191.51	39.1773
194.885	38.9935
198.26	32.616
201.634	33.3734
205.009	25.517
208.384	22.4424
211.759	15.8013
215.133	14.6523
218.508	9.52179
221.883	7.48224
225.258	1.7851
228.633	8.01428
232.008	1.77405
235.382	0.532959
238.757	0.824646
242.132	2.47284
245.507	1.9773
248.882	1.30933
252.256	2.80335
255.631	8.05402
259.006	9.74676
262.381	13.279
265.756	20.2504
269.131	23.3957
272.505	28.4086
275.88	34.2711
279.255	40.5123
282.63	42.5903
286.005	48.6621
289.38	55.784
292.754	60.3677
296.129	63.3845
299.504	62.7187
302.879	61.8641
306.254	58.5196
309.628	56.5761
313.003	51.3898
316.378	45.0789
319.753	34.5473
323.128	29.031
326.502	22.226
329.877	15.2846
333.252	8.79816
336.627	2.74426
340.002	2.36639
343.377	1.24292
346.751	2.46167
350.126	0.320618
353.501	3.1196
356.876	7.80301
360.251	15.4103
363.625	25.138
367	37.4719
370.375	42.1201
373.75	52.1035
377.125	61.4915
380.5	69.0677
383.874	74.9458
387.249	77.3733
390.624	80.9647
393.999	79.7815
397.374	81.7553
400.748	87.141
404.123	87.6562
407.498	89.4644
410.873	89.6951
414.248	89.7845
417.623	93.5975
420.997	88.054
424.372	80.8698
427.747	71.7952
431.122	61.4932
434.497	51.8534
437.872	41.182
441.246	32.6497
444.621	21.2915
447.996	13.4056
451.371	7.21075
454.745	2.86621
458.12	0.847595
461.495	1.96195
464.87	0.045868
468.245	0.128296
471.62	2.09647
474.994	4.18265
478.369	5.51474
481.744	12.5572
485.119	17.6647
488.494	25.5758
491.868	34.0945
495.243	41.3769
498.618	46.6507
501.993	53.2062
505.368	55.5711
508.743	55.6101
512.117	54.6895
515.492	47.3636
518.867	38.4208
522.242	29.3715
525.617	20.4923
528.991	11.2119
532.366	7.01535
535.741	3.51257
539.116	2.75891
542.491	2.99777
545.866	2.03516
549.24	1.63287
552.615	3.0311
555.99	1.38596
559.365	0.71167
562.74	1.21133
566.115	1.46817
569.489	1.14548
572.864	1.2883
576.239	3.24933
579.614	8.44333
582.989	16.5159
586.363	27.0238
589.738	37.1845
593.113	52.0709
596.488	68.4414
599.863	82.9986
603.237	88.1634
606.612	86.9273
609.987	78.5938
613.362	63.4606
616.737	44.7375
620.112	30.3004
623.486	18.1354
626.861	12.6487
630.236	6.48489
633.611	5.65006
636.986	5.3862
640.361	5.00299
643.735	4.08615
647.11	4.16348
650.485	4.45377
653.86	5.39984
657.235	2.10101
660.609	0.322205
663.984	0.323608
667.359	0.704559
670.734	1.24136
674.109	0.721069
677.484	0.585144
680.858	3.25568
684.233	3.44351
687.608	6.97211
690.983	7.31476
694.357	9.20325
697.732	8.46286
701.107	8.98148
704.482	9.73206
707.857	9.36215
711.232	10.7421
714.606	11.4797
717.981	9.70093
721.356	10.1291
724.731	8.23993
728.106	7.61087
731.481	5.45938
734.855	7.66428
738.23	8.04068
741.605	6.46933
744.98	5.25507
748.355	3.93027
751.729	4.78311
755.104	3.79245
758.479	3.4628
761.854	2.10593
765.229	1.88294
768.604	0.046783
771.978	0.729126
775.353	0.339722
778.728	0.291122
782.103	1.68417
785.478	0.334351
788.852	3.59639
792.227	3.84023
795.602	3.25699
798.977	4.13515
802.352	5.83937
805.726	7.50592
809.101	9.35434
812.476	8.3069
815.851	10.425
819.226	11.1151
822.601	11.0988
825.975	12.4166
829.35	12.372
832.725	12.614
836.1	13.3966
839.475	12.9485
842.85	13.1928
846.224	14.2695
849.599	12.4874
852.974	14.0461
856.349	13.6688
859.724	13.2452
863.098	13.4337
866.473	12.831
869.848	11.2178
873.223	11.6138
876.598	10.1532
879.972	8.94632
883.347	8.54097
886.722	7.10214
890.097	6.09294
893.472	7.11717
896.847	6.60695
900.221	4.88676
903.596	2.83005
906.971	1.53732
910.346	3.48865
913.721	0.919098
917.096	2.09592
920.47	1.84317
923.845	0.88031
927.22	0.406311
930.595	1.67908
933.97	0.329224
937.344	0.043365
940.719	1.17783
944.094	0.121521
947.469	1.05548
950.844	0.95929
954.218	1.4949
957.593	0.695709
960.968	1.53662
964.343	1.40286
967.718	4.2839
971.092	2.98914
974.467	4.95865
977.842	5.81439
981.217	6.8309
984.592	8.76916
987.967	9.69519
991.341	10.6102
994.716	11.6499
998.091	12.8577
1001.47	13.6103
1004.84	11.3265
1008.22	12.597
1011.59	12.9268
1014.97	12.4044
1018.34	8.76807
1021.72	9.96237
1025.09	8.22485
1028.46	11.5867
1031.84	9.30582
1035.21	14.0121
1038.59	19.0636
1041.96	26.1778
1045.34	33.8872
1048.71	45.6699
1052.09	58.4837
1055.46	72.5761
1058.84	82.1596
1062.21	94.9304
1065.59	103.934
1068.96	112.006
1072.34	114.836
1075.71	116.495
1079.09	114.311
1082.46	111.621
1085.84	107.68
1089.21	103.131
1092.59	96.5222
1095.96	89.8435
1099.34	78.5213
1102.71	72.1432
1106.09	63.0536
1109.46	57.2169
1112.84	51.9667
1116.21	46.002
1119.58	41.3167
1122.96	36.3577
1126.33	31.7039
1129.71	24.222
1133.08	19.3549
1136.46	15.6857
1139.83	11.4527
1143.21	5.57678
1146.58	2.67258
1149.96	0.603699
1153.33	0.59137
1156.71	0.520325
1160.08	2.93359
1163.46	2.85458
1166.83	3.46164
1170.21	0.425354
1173.58	0.514832
1176.96	0.606995
1180.33	3.33945
1183.71	4.45071
1187.08	7.96866
1190.46	8.37401
1193.83	9.76027
1197.2	12.6997
1200.58	13.1964
1203.95	14.7632
1207.33	13.1093
1210.7	13.484
1214.08	13.0848
1217.45	12.1557
1220.83	10.7426
1224.2	9.7166
1227.58	6.53702
1230.95	6.25311
1234.33	5.81387
1237.7	4.73352
1241.08	5.70807
1244.45	4.65047
1247.83	6.81497
1251.2	5.5793
1254.58	10.1996
1257.95	8.93555
1261.33	7.21831
1264.7	6.79697
1268.08	5.48009
1271.45	4.52106
1274.83	4.07887
1278.2	4.94966
1281.58	3.11803
1284.95	2.13377
1288.33	2.41628
1291.7	1.49262
1295.08	0.930878
1298.45	0.816528
1301.83	0
