Measurement: Raman, 532 nm, unoriented, Raman Data Processed
Mineral: unknown
Rruff sample: R140390
Locality: Seco claim, Taquaral, Brazil
Source: Gunnar Farber
Description: Aggregates of brown prismatic crystals. To be called Lefontite
Measured chemistry: (Mn_1.07_Fe^2+^_0.72_Ca_0.04_Mg_0.03_)_Î£=1.86_Be_0.97_Al_1.95_(PO_4_)_2_(OH)_6.47_ ; Be^2+^ needs to be analyzed by Icp-ms
Raman shift (cm-1)	intensity
108.586	0
111.961	17.4045
115.335	26.8953
118.71	20.144
122.085	10.5109
125.46	9.41718
128.835	13.7967
132.209	9.92511
135.584	4.62952
138.959	1.74338
142.334	0.775818
145.709	3.03195
149.084	0.18042
152.458	3.67917
155.833	8.26529
159.208	13.551
162.583	22.385
165.958	27.886
169.333	37.1691
172.707	46.3607
176.082	55.5422
179.457	66.8971
182.832	76.8224
186.207	89.3706
189.581	100.966
192.956	112.2
196.331	119.169
199.706	121.892
203.081	119.543
206.455	113.752
209.83	108.207
213.205	105.326
216.58	102.332
219.955	96.5504
223.329	92.4173
226.704	82.8782
230.079	76.0126
233.454	64.8516
236.829	51.9748
240.204	39.9038
243.578	27.3746
246.953	12.9454
250.328	4.95868
253.703	0.443512
257.078	1.8558
260.452	0.800537
263.827	0.472748
267.202	0.617584
270.577	6.19479
273.952	8.9024
277.327	13.5294
280.701	16.5383
284.076	19.3171
287.451	23.8575
290.826	27.3477
294.201	32.0268
297.575	35.3888
300.95	38.2415
304.325	39.908
307.7	43.5273
311.075	45.3383
314.45	43.7712
317.824	39.9321
321.199	37.9721
324.574	34.4646
327.949	27.935
331.324	24.1682
334.699	18.4095
338.073	15.205
341.448	11.7424
344.823	7.64978
348.198	5.5657
351.573	3.12311
354.947	1.30707
358.322	0.261871
361.697	0.149628
365.072	0.966492
368.447	1.22488
371.822	0.205444
375.196	3.94794
378.571	9.76599
381.946	12.6045
385.321	18.1659
388.696	23.8321
392.07	29.4569
395.445	38.0696
398.82	50.1411
402.195	63.5253
405.57	78.5581
408.945	96.6787
412.319	114.849
415.694	131.812
419.069	147.215
422.444	155.587
425.818	151.188
429.193	141.89
432.568	130.955
435.943	114.39
439.318	94.9801
442.693	76.0144
446.067	58.941
449.442	42.1237
452.817	28.587
456.192	18.6802
459.567	12.9416
462.942	5.91922
466.316	1.41077
469.691	3.94702
473.066	1.90445
476.441	3.79272
479.816	3.67361
483.19	1.43375
486.565	7.1095
489.94	19.4568
493.315	28.0661
496.69	38.3865
500.065	47.6692
503.439	57.6667
506.814	62.4399
510.189	63.9228
513.564	61.857
516.939	54.3904
520.313	46.2193
523.688	38.9179
527.063	28.9999
530.438	21.0243
533.813	13.5381
537.188	2.57025
540.562	0.722168
543.937	1.1366
547.312	1.20081
550.687	7.13666
554.062	12.5853
557.436	23.2479
560.811	32.9686
564.186	42.8172
567.561	47.3254
570.936	51.9623
574.311	54.821
577.685	58.4783
581.06	63.0185
584.435	71.7658
587.81	88.3459
591.185	112.431
594.559	145.365
597.934	180.63
601.309	200.386
604.684	201.314
608.059	173.411
611.433	138.666
614.808	99.9773
618.183	71.143
621.558	50.1996
624.933	41.5175
628.308	37.7368
631.682	40.0277
635.057	44.2739
638.432	48.8099
641.807	52.5594
645.182	57.4468
648.557	58.3499
651.931	54.8901
655.306	47.9439
658.681	38.8254
662.056	31.3301
665.431	22.4213
668.805	14.0451
672.18	6.35446
675.555	2.2424
678.93	2.23447
682.305	1.74103
685.679	2.80396
689.054	1.75363
692.429	1.71257
695.804	0.503693
699.179	0.734833
702.553	1.80405
705.928	3.48032
709.303	4.70038
712.678	5.40692
716.053	7.68973
719.428	9.70596
722.802	11.2978
726.177	12.8527
729.552	14.0557
732.927	18.5114
736.302	20.9707
739.677	23.2913
743.051	24.2935
746.426	25.4296
749.801	26.4627
753.176	28.1888
756.551	26.6187
759.925	24.2318
763.3	22.8548
766.675	18.9634
770.05	14.2086
773.425	11.3878
776.799	6.74327
780.174	4.69388
783.549	3.92731
786.924	2.21724
790.299	0.6716
793.674	0.075851
797.048	0.348862
800.423	1.5703
803.798	2.33257
807.173	2.70441
810.548	3.11363
813.923	4.21345
817.297	4.65064
820.672	5.93694
824.047	6.14043
827.422	7.9361
830.797	8.91241
834.171	8.73584
837.546	8.23653
840.921	10.5848
844.296	10.9151
847.671	10.7963
851.045	11.0448
854.42	10.902
857.795	10.0336
861.17	9.37614
864.545	8.51482
867.92	8.27011
871.294	6.79813
874.669	8.47563
878.044	3.71037
881.419	3.2222
884.794	2.5338
888.168	1.50224
891.543	0.889557
894.918	1.01581
898.293	1.06589
901.668	1.73932
905.043	0.990372
908.417	1.37871
911.792	0.077103
915.167	0.612473
918.542	1.40202
921.917	2.45898
925.291	4.85719
928.666	7.67056
932.041	11.3921
935.416	16.9718
938.791	21.7709
942.165	29.781
945.54	36.91
948.915	46.0964
952.29	58.4174
955.665	73.7012
959.04	95.6543
962.414	127.415
965.789	165.112
969.164	201.566
972.539	223.873
975.914	228.306
979.288	212.129
982.663	194.735
986.038	172.916
989.413	153.111
992.788	128.519
996.163	110.688
999.537	94.6352
1002.91	78.4048
1006.29	65.4554
1009.66	51.9622
1013.04	41.4023
1016.41	30.8137
1019.79	22.4784
1023.16	14.4247
1026.54	10.0949
1029.91	5.29819
1033.29	1.51143
1036.66	1.21628
1040.04	1.65936
1043.41	1.03668
1046.79	0.153305
1050.16	2.13103
1053.53	2.32867
1056.91	3.86897
1060.28	2.91432
1063.66	5.56642
1067.03	7.06439
1070.41	7.9352
1073.78	5.11275
1077.16	3.5779
1080.53	2.78903
1083.91	0.235519
1087.28	0.639343
1090.66	0.338089
1094.03	0.383942
1097.41	0.296585
1100.78	2.28357
1104.16	1.90706
1107.53	2.29636
1110.91	5.14339
1114.28	5.08453
1117.66	4.07227
1121.03	5.65088
1124.41	3.6532
1127.78	4.37479
1131.15	3.33005
1134.53	3.47562
1137.9	2.09462
1141.28	2.10246
1144.65	1.50662
1148.03	1.56612
1151.4	0.178101
1154.78	1.3831
1158.15	2.07382
1161.53	1.60449
1164.9	2.19199
1168.28	1.38829
1171.65	2.10803
1175.03	1.41618
1178.4	0.331818
1181.78	0.201859
1185.15	2.7326
1188.53	1.7012
1191.9	0.826157
1195.28	0.793381
1198.65	0.282364
1202.03	0.686935
1205.4	0.992355
1208.78	0.118073
1212.15	1.11336
1215.53	1.28797
1218.9	1.75462
1222.28	2.07521
1225.65	1.27948
1229.03	3.14805
1232.4	4.63027
1235.78	4.277
1239.15	5.40413
1242.52	5.37741
1245.9	6.49381
1249.27	7.43411
1252.65	7.85379
1256.02	7.4617
1259.4	7.49241
1262.77	6.98674
1266.15	7.91854
1269.52	5.55615
1272.9	6.02648
1276.27	4.8273
1279.65	3.08614
1283.02	2.71552
1286.4	3.03233
1289.77	1.76824
1293.15	1.41241
1296.52	0.06929
1299.9	0.620277
