Measurement: Raman, 780 nm, unoriented, Raman Data Processed
Mineral: unknown
Rruff sample: R140539
Locality: Palermo No. 1 mine, Groton, New Hampshire, USA
Source: Benjamin N. Schumer
Description: Dark or reddish brown prismatic crystals, associated with grey bladed eosphorite, colorless or white prismatic palermoite (R120141), and natropalermoite (130092). To be called lefontite
Measured chemistry: Be_0.97_(Fe^2+^_1.22_Mn_0.48_Ca_0.16_Mg_0.05_)_Î£=1.91_Al_1.91_(PO_4_)_2_(OH)_6.50_ ; Be2+ needs to be analyzed by Icp-ms
Raman shift (cm-1)	intensity
93.9705	0
97.3453	9.61047
100.72	0.447144
104.095	4.61102
107.47	11.1487
110.845	12.5868
114.219	17.215
117.594	17.4443
120.969	21.902
124.344	36.1538
127.719	32.7141
131.094	29.4191
134.468	20.785
137.843	15.6106
141.218	8.00729
144.593	2.24808
147.968	2.96396
151.342	6.23016
154.717	3.54645
158.092	2.3634
161.467	4.73767
164.842	10.6194
168.216	12.9866
171.591	20.5784
174.966	19.9852
178.341	23.851
181.716	29.5754
185.09	32.1033
188.465	36.4489
191.84	35.3399
195.215	35.0319
198.59	35.8205
201.965	33.7949
205.339	32.9853
208.714	28.1566
212.089	22.5913
215.464	20.5267
218.839	20.9664
222.214	20.1757
225.588	21.5965
228.963	20.6269
232.338	17.9933
235.713	17.8739
239.088	16.0971
242.462	13.6329
245.837	12.6597
249.212	12.5502
252.587	12.6303
255.962	11.386
259.336	13.3932
262.711	13.6791
266.086	16.0873
269.461	22.6545
272.836	25.6632
276.211	26.7894
279.585	29.3442
282.96	28.894
286.335	29.6657
289.71	34.3231
293.085	37.3779
296.459	39.9993
299.834	42.9421
303.209	42.1877
306.584	40.6332
309.959	39.1783
313.334	34.647
316.708	30.1097
320.083	23.8607
323.458	19.7003
326.833	14.9576
330.207	9.38287
333.582	4.70071
336.957	1.71081
340.332	0.056885
343.707	1.48627
347.082	3.80966
350.456	4.98868
353.831	2.6029
357.206	2.44519
360.581	4.57715
363.956	13.1588
367.33	23.6987
370.705	34.5065
374.08	44.9997
377.455	55.5814
380.83	65.1325
384.205	72.5102
387.579	77.0109
390.954	79.0104
394.329	79.6198
397.704	77.9317
401.079	82.5419
404.453	84.8571
407.828	87.819
411.203	94.6186
414.578	99.8671
417.953	106.615
421.327	111.197
424.702	107.034
428.077	100.099
431.452	89.2746
434.827	73.868
438.202	59.6689
441.576	44.7407
444.951	33.5649
448.326	22.2067
451.701	13.7614
455.076	10.3858
458.45	5.52873
461.825	2.92519
465.2	1.3047
468.575	1.28813
471.95	0.144913
475.325	0.682587
478.699	2.25859
482.074	5.68614
485.449	12.2215
488.824	17.2543
492.199	23.8575
495.573	28.0265
498.948	31.5647
502.323	32.0755
505.698	33.3973
509.073	30.7443
512.447	26.5538
515.822	20.7255
519.197	15.0926
522.572	10.6517
525.947	6.08749
529.322	2.44157
532.696	0.108536
536.071	1.33011
539.446	2.29835
542.821	2.00366
546.196	0.145172
549.57	2.73248
552.945	3.82144
556.32	9.73438
559.695	10.6919
563.07	14.0985
566.444	16.1096
569.819	19.3465
573.194	19.8472
576.569	21.9306
579.944	24.7873
583.319	30.3536
586.693	40.3632
590.068	55.4203
593.443	74.5821
596.818	94.9946
600.193	113.023
603.567	122.374
606.942	119.502
610.317	104.246
613.692	84.0564
617.067	66.3732
620.442	51.4175
623.816	41.5974
627.191	32.4914
630.566	26.7575
633.941	22.9106
637.316	21.1483
640.69	18.0418
644.065	17.5758
647.44	14.4966
650.815	12.7998
654.19	10.5556
657.564	8.75734
660.939	5.83879
664.314	4.84901
667.689	1.52092
671.064	0.166084
674.439	0.441803
677.813	0.385971
681.188	0.685257
684.563	0.723793
687.938	1.44654
691.313	1.68515
694.688	2.11627
698.062	3.97441
701.437	3.3642
704.812	5.28928
708.187	7.69934
711.562	6.96935
714.936	6.36063
718.311	8.23374
721.686	8.52149
725.061	8.24847
728.436	6.7006
731.81	7.24628
735.185	4.00635
738.56	2.38146
741.935	1.0184
745.31	0.667107
748.684	1.22367
752.059	0.05912
755.434	0.025177
758.809	0.749146
762.184	1.26056
765.559	0.397789
768.933	0.982071
772.308	0.283798
775.683	0.245148
779.058	0.000217
782.433	0.238766
785.808	1.69949
789.182	1.95043
792.557	1.19555
795.932	1.52479
799.307	2.65362
802.682	3.7544
806.056	4.61562
809.431	4.3388
812.806	4.22611
816.181	4.91638
819.556	5.53846
822.93	6.47815
826.305	5.34804
829.68	5.44799
833.055	6.56517
836.43	5.76843
839.804	7.17007
843.179	7.66576
846.554	7.35006
849.929	7.02753
853.304	7.00967
856.679	7.66392
860.053	8.97714
863.428	7.96535
866.803	8.55023
870.178	8.582
873.553	8.65408
876.927	7.72343
880.302	6.57757
883.677	6.02289
887.052	6.55625
890.427	4.85144
893.802	4.90067
897.176	4.71628
900.551	0.692131
903.926	1.28455
907.301	1.06734
910.676	0.031342
914.05	0.750946
917.425	1.17505
920.8	0.340179
924.175	0.462784
927.55	0.573456
930.924	1.25787
934.299	0.279594
937.674	2.45415
941.049	4.38718
944.424	7.24912
947.799	7.27383
951.173	10.43
954.548	16.0669
957.923	21.8826
961.298	29.3062
964.673	37.7343
968.047	49.404
971.422	59.4565
974.797	68.4216
978.172	72.7657
981.547	72.2279
984.922	64.9117
988.296	56.8006
991.671	45.3467
995.046	37.8768
998.421	28.9039
1001.8	22.8896
1005.17	17.3519
1008.54	11.92
1011.92	9.83813
1015.29	4.43602
1018.67	4.66525
1022.04	2.58713
1025.42	1.315
1028.79	1.97923
1032.17	2.81226
1035.54	4.09038
1038.92	6.85887
1042.29	11.2239
1045.67	17.3438
1049.04	25.2771
1052.42	29.8789
1055.79	37.2326
1059.17	44.686
1062.54	50.6059
1065.92	54.1388
1069.29	57.8398
1072.67	57.657
1076.04	53.5256
1079.42	49.9952
1082.79	45.1208
1086.17	39.1245
1089.54	35.6007
1092.92	30.8045
1096.29	26.1977
1099.66	21.1551
1103.04	18.9404
1106.41	17.8671
1109.79	14.4722
1113.16	12.623
1116.54	10.8356
1119.91	9.66534
1123.29	8.38785
1126.66	6.93121
1130.04	4.8818
1133.41	4.20387
1136.79	2.86706
1140.16	1.96111
1143.54	0.407471
1146.91	0.818123
1150.29	1.30693
1153.66	0.453102
1157.04	0.676701
1160.41	0.20261
1163.79	0.422024
1167.16	0.192024
1170.54	0.420074
1173.91	0.99477
1177.29	2.15763
1180.66	3.35762
1184.04	2.73815
1187.41	4.0198
1190.79	4.23657
1194.16	4.82945
1197.54	5.37985
1200.91	5.4881
1204.28	6.15974
1207.66	6.9996
1211.03	6.49037
1214.41	6.61524
1217.78	5.69404
1221.16	4.95588
1224.53	5.26383
1227.91	4.66524
1231.28	3.71986
1234.66	4.62856
1238.03	3.74979
1241.41	4.25787
1244.78	4.12702
1248.16	4.46606
1251.53	3.24408
1254.91	3.27069
1258.28	3.67696
1261.66	2.78117
1265.03	1.96754
1268.41	2.66825
1271.78	2.42049
1275.16	1.10517
1278.53	0.971069
1281.9	0.112305
