Measurement: Raman, 780 nm, unoriented, Raman Data Processed
Mineral: unknown
Rruff sample: R100091
Source: Luiz Menezes
Description: New mineral, Ba phosphate, colorless dodecahedra on mica, to be called wilancookite
Raman shift (cm-1)	intensity
178.796	0
181.689	3.46558
184.582	2.04614
187.474	8.3728
190.367	5.10889
193.26	10.0796
196.153	7.20215
199.045	13.8147
201.938	16.2029
204.831	20.9814
207.723	25.748
210.616	25.6362
213.509	35.7085
216.401	31.3686
219.294	29.3071
222.187	26.9763
225.079	37.8975
227.972	32.2739
230.865	29.6921
233.758	17.1191
236.65	5.96265
239.543	1.68823
242.436	7.17749
245.328	5.51611
248.221	3.49658
251.114	9.3667
254.006	8.2544
256.899	14.4031
259.792	26.647
262.685	33.7129
265.577	37.5793
268.47	42.7568
271.363	48.384
274.255	66.0188
277.148	74.5063
280.041	86.2192
282.933	101.03
285.826	116.148
288.719	126.119
291.612	139.837
294.504	125.609
297.397	103.531
300.29	76.5019
303.182	64.6375
306.075	60.4629
308.968	60.8577
311.861	74.9739
314.753	88.9961
317.646	103.311
320.539	111.87
323.431	124.375
326.324	141.694
329.217	137.693
332.109	103.277
335.002	69.2407
337.895	44.5134
340.788	21.8545
343.68	12.2996
346.573	6.27539
349.466	13.4902
352.358	19.9102
355.251	26.4211
358.144	22.311
361.036	16.3452
363.929	8.95984
366.822	4.54907
369.715	5.17175
372.607	6.4978
375.5	3.43323
378.393	7.91382
381.285	24.9103
384.178	34.2846
387.071	47.6671
389.964	68.1378
392.856	86.7917
395.749	101.147
398.642	101.643
401.534	104.795
404.427	83.5929
407.32	46.5231
410.212	34.9149
413.105	13.5951
415.998	12.2655
418.89	1.9823
421.783	3.7439
424.676	13.1106
427.569	19.7924
430.461	34.9904
433.354	60.0111
436.247	77.3798
439.139	105.654
442.032	119.093
444.925	114.949
447.817	97.0762
450.71	83.1661
453.603	65.5636
456.496	49.7703
459.388	57.7883
462.281	51.2695
465.174	46.1989
468.066	43.6895
470.959	37.9182
473.852	31.4362
476.745	23.0201
479.637	11.847
482.53	9.51172
485.423	4.62891
488.315	6.63269
491.208	5.62561
494.101	4.93445
496.993	9.16992
499.886	8.1189
502.779	9.81213
505.671	26.0553
508.564	37.9315
511.457	45.7499
514.35	42.8831
517.242	36.9777
520.135	35.2931
523.028	53.0806
525.92	62.7639
528.813	84.1691
531.706	119.313
534.598	150.154
537.491	180.179
540.384	206.705
543.277	230.279
546.169	252.105
549.062	275.377
551.955	255.158
554.847	241.882
557.74	229.736
560.633	238.995
563.525	261.323
566.418	290.868
569.311	330.863
572.204	364.461
575.096	390.656
577.989	404.904
580.882	333.738
583.774	213.959
586.667	131.998
589.56	65.8318
592.452	32.1465
595.345	17.5783
598.238	13.797
601.131	5.84497
604.023	3.58179
606.916	4.22278
609.809	10.579
612.701	3.3822
615.594	0.902588
618.487	4.93957
621.38	3.74866
624.272	8.20068
627.165	10.0519
630.058	11.9271
632.95	2.4668
635.843	7.71655
638.736	13.8898
641.628	8.27722
644.521	11.9891
647.414	4.13257
650.307	1.18103
653.199	1.64221
656.092	7.41711
658.985	0.942017
661.877	0.856567
664.77	2.57703
667.663	3.63843
670.555	4.62415
673.448	1.13977
676.341	7.63892
679.234	12.5909
682.126	19.2069
685.019	19.677
687.912	19.6031
690.804	14.1273
693.697	17.1736
696.59	20.4211
699.482	16.3162
702.375	18.1338
705.268	15.7983
708.16	16.4097
711.053	14.0258
713.946	15.0286
716.839	13.3945
719.731	5.44421
722.624	5.9801
725.517	3.40625
728.409	0.050659
731.302	4.6958
734.195	10.0603
737.087	10.2887
739.98	8.63928
742.873	23.6184
745.766	19.8801
748.658	22.5564
751.551	20.8441
754.444	24.0234
757.336	24.1293
760.229	25.9748
763.122	25.3413
766.014	25.1561
768.907	22.995
771.8	24.1921
774.693	22.6815
777.585	24.4518
780.478	28.0717
783.371	27.649
786.263	22.5529
789.156	21.7363
792.049	14.6107
794.942	11.0881
797.834	9.45032
800.727	6.65723
803.62	2.39502
806.512	10.5605
809.405	8.4281
812.298	3.24622
815.19	1.4834
818.083	10.4545
820.976	7.64575
823.869	7.15747
826.761	7
829.654	1.45557
832.547	8.48987
835.439	5.38281
838.332	2.40576
841.225	2.15674
844.117	6.72119
847.01	12.3629
849.903	17.5546
852.795	10.957
855.688	12.1409
858.581	11.6366
861.474	12.4463
864.366	10.5237
867.259	6.70703
870.152	3.98633
873.044	6.54907
875.937	12.2421
878.83	14.7097
881.722	13.3911
884.615	17.8575
887.508	17.0736
890.401	13.9941
893.293	11.207
896.186	10.9662
899.079	10.6622
901.971	13.599
904.864	8.97388
907.757	6.53296
910.649	14.4552
913.542	12.1697
916.435	13.5998
919.328	9.5105
922.22	7.30676
925.113	8.21021
928.006	1.98975
930.898	3.07873
933.791	2.8706
936.684	5.74365
939.577	1.87708
942.469	0.1698
945.362	0.760254
948.255	4.13635
951.147	0.263184
954.04	3.60938
956.933	2.50171
959.825	3.01856
962.718	3.60327
965.611	3.65308
968.504	10.5804
971.396	18.9445
974.289	23.1002
977.182	31.4689
980.074	35.5543
982.967	53.634
985.86	70.5986
988.752	96.4498
991.645	145.216
994.538	207.506
997.431	284.231
1000.32	381.807
1003.22	489.343
1006.11	583.296
1009	596.771
1011.89	502.231
1014.79	376.824
1017.68	277.771
1020.57	205.201
1023.47	170.295
1026.36	146.852
1029.25	138.861
1032.14	141.603
1035.04	147.299
1037.93	169.846
1040.82	202.671
1043.71	241.68
1046.61	286.173
1049.5	318.47
1052.39	325.731
1055.29	294.066
1058.18	238.673
1061.07	188.43
1063.96	138.203
1066.86	119.513
1069.75	87.126
1072.64	71.9672
1075.53	62.6114
1078.43	45.7471
1081.32	40.5959
1084.21	21.8503
1087.1	19.1973
1090	13.6686
1092.89	10.5329
1095.78	2.3653
1098.67	0.03241
1101.57	3.94934
1104.46	2.06818
1107.35	3.3349
1110.25	0.269897
1113.14	4.66248
1116.03	2.88831
1118.92	3.90008
1121.82	6.34631
1124.71	14.5396
1127.6	14.8851
1130.49	22.8509
1133.39	28.2549
1136.28	33.46
1139.17	42.4652
1142.07	44.8281
1144.96	46.4938
1147.85	55.0949
1150.74	57.706
1153.64	60.1846
1156.53	53.2129
1159.42	55.5776
1162.31	45.2176
1165.21	41.2435
1168.1	39.7799
1170.99	33.8409
1173.88	32.3022
1176.78	26.0582
1179.67	27.7693
1182.56	28.6849
1185.46	17.2076
1188.35	14.5764
1191.24	15.2434
1194.13	12.9285
1197.03	13.5638
1199.92	8.96466
1202.81	15.5553
1205.7	11.815
1208.6	6.70642
1211.49	7.16626
1214.38	9.69507
1217.28	10.1618
1220.17	8.09265
1223.06	8.20947
1225.95	8.56885
1228.85	4.78388
1231.74	10.4526
1234.63	3.74805
1237.53	2.01092
1240.42	1.56696
1243.31	2.24103
1246.2	5.8089
1249.1	4.97174
1251.99	3.78143
1254.88	2.37335
1257.77	2.92151
1260.67	13.1519
1263.56	11.5666
1266.45	3.60913
1269.34	6.19623
1272.24	4.43695
1275.13	2.02435
1278.02	0.456787
1280.91	2.6153
1283.81	5.14105
