Measurement: Raman, 532 nm, unoriented, Raman Data Processed
Mineral: unknown
Rruff sample: R100091
Source: Luiz Menezes
Description: New mineral, Ba phosphate, colorless dodecahedra on mica, to be called wilancookite
Raman shift (cm-1)	intensity
174.381	0
177.273	0.949951
180.166	13.2761
183.059	30.8457
185.951	63.8167
188.844	83.5283
191.737	97.2502
194.629	102.879
197.522	90.4221
200.415	101.232
203.308	120.791
206.2	130.487
209.093	121.149
211.986	124.056
214.878	130.291
217.771	124.58
220.664	102.908
223.556	98.4424
226.449	97.9522
229.342	93.5881
232.234	83.0915
235.127	69.2859
238.02	25.7146
240.913	12.6587
243.805	1.82764
246.698	1.30371
249.591	5.8125
252.483	2.0835
255.376	5.70215
258.269	3.70728
261.161	2.1919
264.054	2.41235
266.947	7.64038
269.84	12.2925
272.732	2.10693
275.625	5.38061
278.518	20.2947
281.41	36.3784
284.303	54.7771
287.196	80.7681
290.089	101.368
292.981	104.828
295.874	75.7058
298.767	52.3052
301.659	35.3862
304.552	44.5039
307.445	30.9688
310.337	60.6968
313.23	73.0056
316.123	101.814
319.015	117.195
321.908	129.179
324.801	146.908
327.694	156.879
330.586	122.76
333.479	81.3364
336.372	56.6731
339.264	30.4675
342.157	21.6748
345.05	10.9876
347.942	15.6274
350.835	12.5364
353.728	18.3684
356.621	39.706
359.513	26.4722
362.406	18.2105
365.299	7.19824
368.191	0.499023
371.084	10.3574
373.977	3.35107
376.87	3.31641
379.762	15.062
382.655	19.9863
385.548	49.8477
388.44	68.5503
391.333	92.687
394.226	100.498
397.118	121.965
400.011	134.502
402.904	129.265
405.796	111.976
408.689	68.6562
411.582	38.9136
414.475	33.0547
417.367	22.792
420.26	14.8569
423.153	28.1689
426.045	21.1846
428.938	51.9717
431.831	74.3516
434.724	105.268
437.616	149.543
440.509	161.109
443.402	191.901
446.294	156.397
449.187	125.055
452.08	101.122
454.972	74.168
457.865	64.2197
460.758	65.958
463.651	79.8833
466.543	78.1704
469.436	83.7446
472.329	65.1987
475.221	35.2022
478.114	18.8306
481.007	16.915
483.899	6.96387
486.792	3.05127
489.685	5.0918
492.577	8.71631
495.47	7.42481
498.363	6.79346
501.256	21.8477
504.148	27.5811
507.041	37.269
509.934	42.6904
512.826	38.688
515.719	39.0039
518.612	32.0527
521.505	56.5557
524.397	84.0117
527.29	111.112
530.183	146.246
533.075	179.324
535.968	219.944
538.861	271.327
541.753	307.647
544.646	326.911
547.539	375.533
550.432	393.26
553.324	374.906
556.217	367.644
559.11	391.409
562.002	435.33
564.895	507.222
567.788	574.999
570.68	628.694
573.573	654.354
576.466	675.151
579.359	616.322
582.251	481.919
585.144	318.586
588.037	209.326
590.929	129.771
593.822	81.7729
596.715	58.6855
599.607	45.5161
602.5	28.4307
605.393	44.1289
608.285	53.2398
611.178	48.7871
614.071	27.2642
616.964	18.5249
619.856	4.20996
622.749	3.1084
625.642	3.65527
628.534	1.94287
631.427	22.3481
634.32	1.03467
637.212	9.48828
640.105	2.10644
642.998	19.127
645.891	5.41894
648.783	9.64209
651.676	18.4985
654.569	23.2856
657.461	10.7495
660.354	24.022
663.247	13.8623
666.139	14.3931
669.032	23.8799
671.925	18.1157
674.818	27.9526
677.71	32.7593
680.603	32.875
683.496	37.1123
686.388	20.5962
689.281	27.8355
692.174	28.8227
695.067	26.3086
697.959	34.1138
700.852	34.5059
703.745	20.8643
706.637	17.978
709.53	28.3452
712.423	31.3896
715.315	20.1606
718.208	10.1479
721.101	0.022461
723.994	5.58398
726.886	14.0605
729.779	11.5102
732.672	7.69092
735.564	5.32471
738.457	17.6328
741.35	15.2734
744.242	9.03027
747.135	28.5449
750.028	21.1274
752.92	38.2441
755.813	15.4321
758.706	28.6724
761.599	14.4819
764.491	36.1113
767.384	19.9219
770.277	30.897
773.169	28.002
776.062	30.2544
778.955	22.1948
781.847	22.6196
784.74	28.4189
787.633	21.6738
790.526	18.2178
793.418	32.2051
796.311	16.8496
799.204	12.6611
802.096	15.0967
804.989	18.1758
807.882	4.96289
810.774	2.99853
813.667	1.43897
816.56	3.41065
819.453	17.4883
822.345	12.3306
825.238	2.68945
828.131	3.05518
831.023	11.5596
833.916	7.74951
836.809	9.33838
839.702	4.3667
842.594	10.3428
845.487	8.92188
848.38	7.74219
851.272	7.28174
854.165	5.57275
857.058	11.502
859.95	5.17871
862.843	16.5205
865.736	5.49268
868.629	4.18408
871.521	4.52197
874.414	19.6074
877.307	17.1157
880.199	22.4907
883.092	8.52148
885.985	15.044
888.877	17.7041
891.77	23.1538
894.663	32.8569
897.556	31.2188
900.448	32.5083
903.341	17.832
906.234	26.2134
909.126	27.6445
912.019	6.80908
914.912	18.8096
917.804	25.4482
920.697	8.45508
923.59	9.68799
926.482	13.1953
929.375	10.7021
932.268	6.87549
935.161	6.48438
938.053	1.61231
940.946	0.226074
943.839	7.82812
946.731	4.23096
949.624	10.3281
952.517	5.62939
955.409	2.54883
958.302	13.081
961.195	6.0708
964.088	1.24951
966.98	1.99609
969.873	12.5967
972.766	15.8813
975.658	32.5962
978.551	66.4692
981.444	97.5947
984.337	126.281
987.229	180.613
990.122	244.673
993.015	347.531
995.907	470.941
998.8	678.937
1001.69	939.265
1004.59	1184.86
1007.48	1332.02
1010.37	1255.29
1013.26	993.919
1016.16	735.325
1019.05	541.133
1021.94	428.263
1024.83	350.947
1027.73	313.942
1030.62	300.615
1033.51	314.811
1036.4	347.76
1039.3	394.404
1042.19	477.285
1045.08	563.144
1047.98	650.96
1050.87	706.774
1053.76	691.936
1056.65	595.723
1059.55	467.644
1062.44	357.224
1065.33	246.491
1068.22	185.507
1071.12	147.176
1074.01	119.402
1076.9	106.347
1079.8	85.9522
1082.69	65.1323
1085.58	45.0596
1088.47	28.5102
1091.37	21.6602
1094.26	17.019
1097.15	2.13281
1100.04	11.5762
1102.94	7.15918
1105.83	7.06982
1108.72	4.24268
1111.62	6.14697
1114.51	24.8843
1117.4	0.875488
1120.29	13.4033
1123.19	30.5386
1126.08	10.4277
1128.97	33.5278
1131.86	41.1968
1134.76	62.8809
1137.65	63.0791
1140.54	60.1152
1143.43	77.8218
1146.33	80.0088
1149.22	92.1543
1152.11	109.769
1155.01	109.535
1157.9	97.5986
1160.79	88.1977
1163.68	72.5796
1166.58	64.0288
1169.47	74.6011
1172.36	57.0801
1175.26	43.9834
1178.15	37.2407
1181.04	44.9956
1183.93	45.3618
1186.83	15.4692
1189.72	11.6685
1192.61	21.105
1195.5	16.6455
1198.4	24.3359
1201.29	13.8003
1204.18	11.0513
1207.07	3.30078
1209.97	16.9414
1212.86	17.6138
1215.75	14.4043
1218.64	10.5205
1221.54	7.97607
1224.43	13.3208
1227.32	8.48975
1230.22	12.0264
1233.11	14.7383
1236	12.6333
1238.89	1.49219
1241.79	10.1094
1244.68	5.23389
1247.57	24.1411
1250.46	25.7002
1253.36	32.3247
1256.25	17.9395
1259.14	21.9663
1262.04	19.314
1264.93	16.7793
1267.82	25.9004
1270.71	28.04
1273.61	18.7168
1276.5	10.6919
1279.39	5.1582
1282.29	4.78027
1285.18	9.4751
1288.07	0.084473
1290.96	6.47314
1293.86	6.98438
1296.75	8.57031
1299.64	15.7315
1302.53	9.32568
