Measurement: Raman, 780 nm, unoriented, Raman Data Processed
Mineral: unknown
Rruff sample: R140390
Locality: Seco claim, Taquaral, Brazil
Source: Gunnar Farber
Description: Aggregates of brown prismatic crystals. To be called Lefontite
Measured chemistry: (Mn_1.07_Fe^2+^_0.72_Ca_0.04_Mg_0.03_)_Î£=1.86_Be_0.97_Al_1.95_(PO_4_)_2_(OH)_6.47_ ; Be^2+^ needs to be analyzed by Icp-ms
Raman shift (cm-1)	intensity
99.2738	0
102.649	11.2983
106.023	33.4559
109.398	46.6492
112.773	53.2434
116.148	45.1821
119.523	26.8128
122.897	23.8122
126.272	23.0365
129.647	23.5198
133.022	16.9238
136.397	11.9412
139.772	6.48492
143.146	0.358154
146.521	0.868805
149.896	1.89563
153.271	2.27744
156.646	4.10063
160.02	3.78706
163.395	10.4221
166.77	17.2686
170.145	20.2408
173.52	26.6291
176.894	31.1085
180.269	35.0971
183.644	41.9357
187.019	47.0123
190.394	53.8145
193.769	58.324
197.143	62.0575
200.518	61.5857
203.893	59.6372
207.268	56.7896
210.643	46.7893
214.018	39.5211
217.392	33.7658
220.767	28.3453
224.142	25.6383
227.517	23.0872
230.892	20.4548
234.266	17.9175
237.641	13.6201
241.016	13.1885
244.391	8.82434
247.766	8.20354
251.14	5.64444
254.515	3.02364
257.89	2.10919
261.265	2.30824
264.64	3.99594
268.014	6.60663
271.389	7.03659
274.764	7.34438
278.139	5.90915
281.514	5.90974
284.889	6.86208
288.263	7.55826
291.638	7.79686
295.013	11.6948
298.388	15.6485
301.763	21.624
305.137	23.7817
308.512	25.0547
311.887	22.9942
315.262	21.6598
318.637	19.5705
322.012	17.0634
325.386	15.4344
328.761	12.5906
332.136	12.3815
335.511	9.91571
338.886	7.71564
342.26	5.5339
345.635	2.24255
349.01	0.240479
352.385	0.90654
355.76	1.62811
359.135	2.49339
362.509	1.74158
365.884	0.086517
369.259	2.86595
372.634	5.85214
376.009	9.28915
379.383	11.6719
382.758	16.3477
386.133	17.7905
389.508	20.3538
392.883	22.7756
396.257	24.8931
399.632	30.3071
403.007	34.4423
406.382	40.3728
409.757	45.961
413.132	51.7551
416.506	55.2641
419.881	58.7617
423.256	60.3402
426.631	58.4063
430.006	57.0255
433.38	51.1236
436.755	44.1449
440.13	36.3625
443.505	28.4854
446.88	20.9464
450.255	16.1142
453.629	11.0623
457.004	8.29955
460.379	7.17178
463.754	4.60071
467.129	2.76332
470.503	2.44503
473.878	0.441101
477.253	0.097023
480.628	0.818947
484.003	0.484566
487.377	2.94775
490.752	4.07246
494.127	8.15451
497.502	10.9358
500.877	12.5571
504.252	14.3631
507.626	14.1284
511.001	12.1641
514.376	10.7274
517.751	8.47009
521.126	4.94827
524.5	3.72619
527.875	0.867752
531.25	0.1642
534.625	0.319016
538	0.8582
541.375	1.46728
544.749	0.667824
548.124	0.060867
551.499	4.28845
554.874	9.67558
558.249	13.0294
561.623	16.0492
564.998	20.5846
568.373	22.2731
571.748	24.9191
575.123	25.308
578.497	26.7771
581.872	30.2275
585.247	34.5425
588.622	43.5615
591.997	55.9096
595.371	70.726
598.746	87.4742
602.121	97.2014
605.496	94.5431
608.871	82.2527
612.246	66.5894
615.62	52.8514
618.995	41.8574
622.37	32.6868
625.745	28.4631
629.12	26.9227
632.494	25.3837
635.869	25.3734
639.244	25.4663
642.619	24.799
645.994	24.9566
649.369	23.4149
652.743	21.8344
656.118	18.612
659.493	16.7272
662.868	10.481
666.243	7.7931
669.617	5.11867
672.992	2.992
676.367	0.61657
679.742	0.170975
683.117	0.417389
686.491	0.815468
689.866	0.864662
693.241	0.001335
696.616	0.23505
699.991	0.200649
703.366	0.148792
706.74	0.482014
710.115	0.162918
713.49	1.33701
716.865	0.454124
720.24	0.95866
723.614	2.61439
726.989	0.902546
730.364	1.43234
733.739	1.29401
737.114	1.04637
740.489	1.64332
743.863	2.66274
747.238	2.05601
750.613	2.84406
753.988	1.85828
757.363	2.40916
760.737	1.95686
764.112	1.39672
767.487	1.66027
770.862	2.05498
774.237	1.33492
777.611	0.55978
780.986	0.490231
784.361	0.535042
787.736	0.787632
791.111	0.842087
794.486	0.801025
797.86	0.623928
801.235	0.772869
804.61	1.20241
807.985	1.3321
811.36	1.94162
814.734	1.24043
818.109	2.55201
821.484	1.95352
824.859	2.34149
828.234	2.52111
831.609	2.40374
834.983	2.66777
838.358	2.38711
841.733	2.91338
845.108	2.89652
848.483	3.10084
851.857	4.08501
855.232	4.27265
858.607	3.96498
861.982	3.62138
865.357	3.97917
868.731	3.70797
872.106	3.26548
875.481	2.40782
878.856	1.88361
882.231	1.99302
885.606	2.13912
888.98	1.12822
892.355	0.917301
895.73	0.506229
899.105	0.524002
902.48	0.195343
905.854	0.811478
909.229	0.464508
912.604	0.161804
915.979	0.011806
919.354	0.695301
922.729	0.176926
926.103	0.451752
929.478	0.265049
932.853	1.58855
936.228	4.25107
939.603	5.51094
942.977	8.76701
946.352	11.9877
949.727	15.9581
953.102	19.5662
956.477	27.5167
959.851	38.2252
963.226	54.2343
966.601	72.3477
969.976	88.4403
973.351	92.6264
976.726	87.0744
980.1	77.1039
983.475	66.6332
986.85	55.9658
990.225	47.605
993.6	38.53
996.974	32.0106
1000.35	27.0133
1003.72	21.6976
1007.1	16.5478
1010.47	13.7628
1013.85	9.80917
1017.22	6.99613
1020.6	4.90762
1023.97	2.92616
1027.35	1.37119
1030.72	0.405586
1034.1	0.69986
1037.47	0.383057
1040.85	0.992081
1044.22	2.53947
1047.6	2.63686
1050.97	5.19736
1054.35	6.42837
1057.72	7.97732
1061.1	10.3988
1064.47	10.7727
1067.85	10.0297
1071.22	11.3399
1074.6	9.95228
1077.97	8.09
1081.35	5.99409
1084.72	3.98002
1088.09	2.78413
1091.47	1.00218
1094.84	0.055634
1098.22	0.099194
1101.59	0.197067
1104.97	0.785133
1108.34	0.750504
1111.72	1.15958
1115.09	0.92561
1118.47	0.625908
1121.84	1.26983
1125.22	1.31309
1128.59	1.19392
1131.97	0.2887
1135.34	0.174866
1138.72	0.801899
1142.09	0.511024
1145.47	0.801437
1148.84	0.612888
1152.22	0.05809
1155.59	0.053726
1158.97	0.416798
1162.34	0.738594
1165.71	1.48521
1169.09	1.90164
1172.46	1.76565
1175.84	2.20268
1179.21	2.68496
1182.59	1.98391
1185.96	2.30801
1189.34	2.96063
1192.71	2.74132
1196.09	2.9341
1199.46	3.09281
1202.84	2.77399
1206.21	2.92538
1209.59	2.59
1212.96	2.18365
1216.34	1.75484
1219.71	1.29085
1223.09	1.68727
1226.46	1.73968
1229.84	1.46878
1233.21	2.41192
1236.59	2.14784
1239.96	1.83583
1243.34	2.18356
1246.71	2.0485
1250.09	2.31926
1253.46	1.32314
1256.84	1.57552
1260.21	1.2178
1263.59	1.33214
1266.96	0.781935
1270.33	1.29466
1273.71	0.731781
1277.08	0.59309
1280.46	0.62966
1283.83	0.196051
