Measurement: Raman, 780 nm, unoriented, Raman Data Processed
Mineral: unknown
Rruff sample: R140074
Locality: Galil√©ia, Minas Gerais, Brazil
Source: Bob Jenkins
Description: Reddish brown elongated crystals (to be named as Lefontite). Associated with ushkovite (R060954), atencioite, rockbridgeite, and albite.
Raman shift (cm-1)	intensity
112.773	0
116.148	3.0116
119.523	2.01324
122.897	11.85
126.272	11.1587
129.647	16.0137
133.022	17.4205
136.397	16.7682
139.772	12.6024
143.146	5.46258
146.521	1.67474
149.896	2.78607
153.271	0.947144
156.646	1.10883
160.02	0.889893
163.395	5.80786
166.77	7.25116
170.145	12.9084
173.52	21.5757
176.894	32.6201
180.269	43.0922
183.644	57.2204
187.019	68.2359
190.394	79.3403
193.769	89.4063
197.143	95.9628
200.518	98.7327
203.893	97.0969
207.268	101.053
210.643	94.0448
214.018	94.4475
217.392	94.1727
220.767	92.3337
224.142	88.2422
227.517	81.2217
230.892	71.4733
234.266	62.6423
237.641	53.2989
241.016	38.7209
244.391	32.2249
247.766	24.8699
251.14	15.316
254.515	12.2132
257.89	3.4419
261.265	2.58783
264.64	0.008301
268.014	3.80981
271.389	1.52545
274.764	5.99939
278.139	10.6417
281.514	15.4664
284.889	23.0931
288.263	27.7875
291.638	37.762
295.013	42.8736
298.388	48.7386
301.763	48.5309
305.137	47.7318
308.512	47.4802
311.887	41.0016
315.262	34.6356
318.637	27.9089
322.012	22.2147
325.386	14.1396
328.761	8.07623
332.136	2.55243
335.511	0.10498
338.886	0.085632
342.26	1.47968
345.635	0.579834
349.01	0.591309
352.385	1.38959
355.76	0.295593
359.135	1.5336
362.509	0.033997
365.884	0.677124
369.259	2.48511
372.634	5.32239
376.009	7.32553
379.383	9.47031
382.758	13.1457
386.133	22.7214
389.508	27.2581
392.883	37.7905
396.257	45.2016
399.632	53.5619
403.007	66.3616
406.382	79.1468
409.757	88.4416
413.132	100.046
416.506	111.402
419.881	121.063
423.256	120.137
426.631	117.22
430.006	112.887
433.38	103.338
436.755	92.1029
440.13	79.114
443.505	71.3491
446.88	64.2143
450.255	62.5259
453.629	59.7904
457.004	57.7501
460.379	58.2316
463.754	53.0116
467.129	45.2428
470.503	39.8556
473.878	30.5655
477.253	19.7947
480.628	16.0681
484.003	13.3145
487.377	6.56735
490.752	2.79627
494.127	0.36261
497.502	2.7955
500.877	0.710022
504.252	2.70523
507.626	6.50671
511.001	5.45996
514.376	7.04459
517.751	3.66193
521.126	1.06534
524.5	1.49603
527.875	1.13596
531.25	3.24149
534.625	1.38361
538	3.72897
541.375	0.641022
544.749	0.113342
548.124	7.55731
551.499	16.1872
554.874	25.394
558.249	34.4339
561.623	47.4977
564.998	61.2109
568.373	74.3898
571.748	87.1471
575.123	97.6505
578.497	103.892
581.872	106.897
585.247	113.521
588.622	117.211
591.997	126.537
595.371	137.948
598.746	142.732
602.121	150.777
605.496	143.963
608.871	126.624
612.246	109.469
615.62	86.1521
618.995	66.5822
622.37	55.9766
625.745	48.6356
629.12	43.4008
632.494	43.6115
635.869	43.7743
639.244	43.3564
642.619	45.3199
645.994	46.8531
649.369	44.5275
652.743	41.2717
656.118	38.2584
659.493	35.3582
662.868	26.664
666.243	21.9048
669.617	17.037
672.992	13.3343
676.367	9.30365
679.742	6.15591
683.117	2.71664
686.491	1.42496
689.866	1.05423
693.241	0.042236
696.616	1.10376
699.991	1.60736
703.366	0.698303
706.74	0.275894
710.115	0.394226
713.49	0.852631
716.865	0.918777
720.24	3.12074
723.614	1.41426
726.989	0.097778
730.364	1.78981
733.739	0.57251
737.114	2.6971
740.489	2.88802
743.863	1.77435
747.238	3.79657
750.613	3.29182
753.988	3.73691
757.363	3.02963
760.737	2.26953
764.112	2.33791
767.487	3.40491
770.862	2.62845
774.237	2.13165
777.611	2.86661
780.986	3.74289
784.361	3.6629
787.736	4.67639
791.111	6.61961
794.486	5.92107
797.86	6.04512
801.235	5.86797
804.61	7.08478
807.985	7.49831
811.36	6.07004
814.734	6.54739
818.109	7.48531
821.484	6.02344
824.859	4.90848
828.234	6.27196
831.609	6.14987
834.983	7.86899
838.358	7.88451
841.733	6.59126
845.108	8.04216
848.483	7.60158
851.857	8.16043
855.232	6.25339
858.607	6.64131
861.982	4.95474
865.357	4.63301
868.731	3.67688
872.106	3.48357
875.481	3.56902
878.856	0.939819
882.231	0.262817
885.606	0.061218
888.98	1.30078
892.355	0.25386
895.73	1.74542
899.105	1.37051
902.48	2.0109
905.854	0.759979
909.229	0.17894
912.604	1.19869
915.979	4.33054
919.354	7.37296
922.729	8.95767
926.103	14.3706
929.478	18.0705
932.853	25.1667
936.228	29.5497
939.603	36.1957
942.977	40.5371
946.352	47.1769
949.727	52.2136
953.102	62.4177
956.477	70.2998
959.851	83.5744
963.226	99.0521
966.601	118.338
969.976	139.684
973.351	160.668
976.726	177.132
980.1	186.628
983.475	187.732
986.85	177.139
990.225	166.302
993.6	152.435
996.974	137.517
1000.35	122.985
1003.72	107.717
1007.1	93.3973
1010.47	80.2997
1013.85	68.9868
1017.22	58.9353
1020.6	50.711
1023.97	41.0373
1027.35	34.7903
1030.72	28.8077
1034.1	20.7119
1037.47	17.6183
1040.85	11.7915
1044.22	9.56471
1047.6	6.22691
1050.97	3.34192
1054.35	0.479706
1057.72	0.538895
1061.1	0.276047
1064.47	2.35292
1067.85	2.43741
1071.22	0.731949
1074.6	1.00092
1077.97	1.05354
1081.35	0.813538
1084.72	0.75766
1088.09	4.15212
1091.47	2.61427
1094.84	3.28157
1098.22	4.3127
1101.59	5.77676
1104.97	3.91554
1108.34	7.08667
1111.72	5.34653
1115.09	5.31024
1118.47	7.09847
1121.84	4.60803
1125.22	4.58704
1128.59	5.58873
1131.97	3.29376
1135.34	1.6761
1138.72	1.73602
1142.09	0.76796
1145.47	2.18158
1148.84	0.334915
1152.22	0.602036
1155.59	0.028992
1158.97	0.086075
1162.34	1.74431
1165.71	0.772659
1169.09	1.65701
1172.46	2.0992
1175.84	1.47887
1179.21	2.16949
1182.59	2.20892
1185.96	0.370667
1189.34	1.49944
1192.71	2.78444
1196.09	1.08305
1199.46	2.3029
1202.84	3.71249
1206.21	1.3674
1209.59	1.60146
1212.96	1.84601
1216.34	2.12375
1219.71	1.77805
1223.09	0.994843
1226.46	3.79193
1229.84	2.19775
1233.21	2.60593
1236.59	3.13692
1239.96	2.55104
1243.34	2.07799
1246.71	3.30782
1250.09	3.67563
1253.46	2.43144
1256.84	2.94983
1260.21	3.89633
1263.59	3.9025
1266.96	2.45209
1270.33	2.15854
1273.71	0.983582
1277.08	1.69098
1280.46	0.759659
1283.83	0.30162
