Measurement: Raman, 780 nm, unoriented, Raman Data Processed
Mineral: unknown
Rruff sample: R140428
Locality: João Teodoro mine, Linópolis district, Divino das Laranjeiras, Minas Gerais, Brazil
Source: Michael Scott
Description: Brown prismatic crystals, associated with light-brown greifensteinite (R060588), dark green acicular gormanite (R080075), and white fine-grained leucophosphite. To be known as lefontite
Raman shift (cm-1)	intensity
94.9347	0
98.3096	4.01782
101.684	2.71045
105.059	18.2534
108.434	26.3379
111.809	31.1791
115.184	31.9368
118.558	24.6446
121.933	25.5643
125.308	17.9131
128.683	14.746
132.058	9.90079
135.433	4.87949
138.807	5.13165
142.182	0.065125
145.557	0.254333
148.932	2.79865
152.307	0.949402
155.681	4.10672
159.056	10.4458
162.431	14.8151
165.806	20.1755
169.181	25.0911
172.555	27.8974
175.93	33.3398
179.305	38.0382
182.68	45.5015
186.055	52.6135
189.43	57.4295
192.804	64.167
196.179	64.7206
199.554	64.7172
202.929	62.3313
206.304	55.4775
209.678	47.6587
213.053	45.7919
216.428	42.139
219.803	39.6301
223.178	40.95
226.553	37.1108
229.927	33.3643
233.302	29.2734
236.677	26.3252
240.052	20.4087
243.427	14.0095
246.801	12.7634
250.176	6.8414
253.551	4.10577
256.926	1.3002
260.301	0.225891
263.675	0.63562
267.05	2.42267
270.425	1.29471
273.8	0.597229
277.175	2.64557
280.55	3.74213
283.924	5.26761
287.299	6.72519
290.674	12.8152
294.049	16.3957
297.424	21.4111
300.798	26.2826
304.173	31.2197
307.548	35.1082
310.923	32.1903
314.298	33.7411
317.673	29.9543
321.047	27.4992
324.422	23.2389
327.797	19.9681
331.172	17.032
334.547	13.3866
337.921	11.1265
341.296	7.54965
344.671	5.09674
348.046	4.40369
351.421	2.00491
354.796	0.220428
358.17	0.867279
361.545	2.02002
364.92	1.19666
368.295	0.347198
371.67	3.63779
375.044	4.82169
378.419	8.29425
381.794	11.4735
385.169	14.608
388.544	14.3786
391.918	14.7136
395.293	13.9951
398.668	15.7116
402.043	18.5464
405.418	18.2157
408.793	21.4414
412.167	27.0983
415.542	28.9668
418.917	32.1487
422.292	32.1962
425.667	33.8958
429.041	32.9558
432.416	29.8854
435.791	28.4412
439.166	24.2854
442.541	21.149
445.915	19.2318
449.29	14.8758
452.665	17.6519
456.04	21.3818
459.415	24.9421
462.789	27.3528
466.164	25.3817
469.539	21.1016
472.914	15.9309
476.289	7.75458
479.664	4.73744
483.038	3.44069
486.413	6.15205
489.788	3.40688
493.163	7.70602
496.538	9.36687
499.913	10.5867
503.287	13.4061
506.662	15.1985
510.037	13.1348
513.412	10.6198
516.787	7.23009
520.161	4.10142
523.536	1.49359
526.911	0.62471
530.286	2.22696
533.661	2.23073
537.035	0.557724
540.41	1.01576
543.785	0.362335
547.16	2.56821
550.535	4.83775
553.909	8.48328
557.284	12.4793
560.659	15.6237
564.034	19.0058
567.409	20.9132
570.784	24.1256
574.158	25.2114
577.533	29.0385
580.908	33.5234
584.283	42.8221
587.658	49.7594
591.033	65.2701
594.407	84.0107
597.782	104.962
601.157	119.787
604.532	121.58
607.907	108.798
611.281	89.4311
614.656	70.1063
618.031	51.7969
621.406	42.3991
624.781	34.5134
628.155	29.1977
631.53	26.2216
634.905	25.3092
638.28	25.3256
641.655	23.7032
645.029	24.3594
648.404	21.3723
651.779	20.885
655.154	15.6688
658.529	14.4148
661.904	11.3006
665.278	8.45186
668.653	5.01739
672.028	2.59033
675.403	1.46596
678.778	0.373062
682.153	0.466217
685.527	1.09235
688.902	1.384
692.277	0.665634
695.652	0.261795
699.027	0.254684
702.401	1.74657
705.776	0.756714
709.151	1.97055
712.526	1.84961
715.901	2.09541
719.275	3.82913
722.65	4.00945
726.025	2.78722
729.4	3.97939
732.775	4.14714
736.149	5.11041
739.524	4.52406
742.899	3.35544
746.274	3.09337
749.649	2.29333
753.024	1.82266
756.398	2.49532
759.773	1.28506
763.148	2.1044
766.523	1.70173
769.898	1.53399
773.273	0.372086
776.647	0.09948
780.022	0.121201
783.397	0.467407
786.772	1.51473
790.146	0.724792
793.521	0.38147
796.896	0.489738
800.271	1.91373
803.646	2.66907
807.021	2.23087
810.395	3.32233
813.77	2.45988
817.145	3.9105
820.52	2.94849
823.895	3.26867
827.269	4.93137
830.644	3.68173
834.019	4.79678
837.394	3.9342
840.769	5.59871
844.144	4.64334
847.518	6.51372
850.893	6.0078
854.268	5.66759
857.643	6.87475
861.018	7.37756
864.393	7.04647
867.767	5.04475
871.142	5.10535
874.517	5.23286
877.892	4.04057
881.266	3.49858
884.641	3.0228
888.016	2.00445
891.391	1.40852
894.766	1.19628
898.141	0.90023
901.515	0.228226
904.89	1.36148
908.265	1.5535
911.64	0.242706
915.015	2.20953
918.389	0.75386
921.764	0.684326
925.139	1.54466
928.514	1.71573
931.889	3.44942
935.264	7.00856
938.638	10.0315
942.013	12.9901
945.388	15.4931
948.763	20.5169
952.138	27.8799
955.512	35.9889
958.887	49.6376
962.262	69.2958
965.637	95.0597
969.012	120.123
972.386	132.402
975.761	132.533
979.136	125.046
982.511	115.547
985.886	104.495
989.261	92.3742
992.635	81.8271
996.01	72.4971
999.385	64.1266
1002.76	56.7732
1006.13	49.2779
1009.51	41.8233
1012.88	34.9909
1016.26	27.3916
1019.63	24.2617
1023.01	17.751
1026.38	12.8637
1029.76	11.3439
1033.13	6.49133
1036.51	5.72224
1039.88	5.85664
1043.26	7.5377
1046.63	4.63583
1050.01	7.32448
1053.38	6.48529
1056.76	7.60046
1060.13	8.37743
1063.51	8.11111
1066.88	6.86804
1070.26	6.2818
1073.63	4.56679
1077.01	2.12198
1080.38	0.703888
1083.76	0.855453
1087.13	0.828705
1090.51	1.9814
1093.88	1.36162
1097.26	0.727631
1100.63	0.168518
1104	2.0508
1107.38	3.76514
1110.75	5.74931
1114.13	4.73839
1117.5	4.53751
1120.88	5.51074
1124.25	5.91631
1127.63	5.51476
1131	5.00589
1134.38	3.92046
1137.75	2.32441
1141.13	1.91142
1144.5	0.931358
1147.88	1.48083
1151.25	0.469978
1154.63	0.203262
1158	0.370285
1161.38	1.16927
1164.75	0.21064
1168.13	0.658257
1171.5	1.48241
1174.88	2.73186
1178.25	3.09189
1181.62	2.68564
1185	2.76585
1188.38	4.169
1191.75	3.62955
1195.12	5.86109
1198.5	5.14273
1201.87	6.1609
1205.25	4.49861
1208.62	4.14046
1212	4.17053
1215.37	3.44957
1218.75	3.34553
1222.12	2.93833
1225.5	4.21727
1228.87	5.12059
1232.25	2.78471
1235.62	3.30276
1239	1.8334
1242.37	3.0436
1245.75	4.09821
1249.12	2.67448
1252.5	1.81546
1255.87	0.587082
1259.25	1.5395
1262.62	2.14171
1265.99	1.6126
1269.37	3.19943
1272.74	1.22461
1276.12	0.751442
1279.49	0.516808
1282.87	0.294266
