Measurement: Raman, 532 nm, unoriented, Raman Data Processed
Mineral: Uralborite
Rruff sample: R061140
Ideal chemistry: CaB_2_O_2_(OH)_4_
Locality: Fuka mine, Bicchu-cho, Okayama Prefecture, Japan
Source: Michael Scott
Description: Colorless massive
Raman shift (cm-1)	intensity
139.093	0
142.467	476.365
145.842	925.011
149.217	761.363
152.592	1599.58
155.967	2583.72
159.341	1476.74
162.716	624.379
166.091	829.709
169.466	268.121
172.841	112.662
176.215	36.331
179.59	325.446
182.965	710.007
186.34	1477.71
189.715	1651.7
193.09	1859.44
196.464	3061.36
199.839	2584.95
203.214	2441.73
206.589	1354.07
209.964	468.18
213.339	732.009
216.713	983.97
220.088	1206.28
223.463	1311.78
226.838	1196.71
230.213	1252.37
233.587	923.502
236.962	951.543
240.337	876.681
243.712	861.216
247.087	968.907
250.462	817.012
253.836	402.602
257.211	184.757
260.586	141.388
263.961	139.662
267.336	366.861
270.71	898.087
274.085	1194.07
277.46	835.958
280.835	203.097
284.21	15.312
287.584	127.8
290.959	140.168
294.334	22.7041
297.709	183.388
301.084	506.113
304.459	825.203
307.833	1089.11
311.208	1653.33
314.583	2385.11
317.958	3056.99
321.333	3887.74
324.707	4610.42
328.082	4954.81
331.457	3523.31
334.832	1762.4
338.207	823.537
341.582	541.517
344.956	583.761
348.331	863.196
351.706	1273.7
355.081	1766.33
358.456	1958.96
361.83	2118.09
365.205	2305.41
368.58	2547.46
371.955	2230.34
375.33	1046.93
378.705	357.921
382.079	411.239
385.454	601.949
388.829	613.107
392.204	378.002
395.579	163.154
398.954	32.1709
402.328	95.8794
405.703	0.669922
409.078	415.582
412.453	955.001
415.828	1965.5
419.202	3219.99
422.577	4846.72
425.952	5981.23
429.327	5398.66
432.702	3807.1
436.077	2862.26
439.451	2932.37
442.826	2730.95
446.201	2383.07
449.576	1510.67
452.951	1200.05
456.325	1123.07
459.7	1114.16
463.075	819.446
466.45	212.069
469.825	85.1255
473.2	101.198
476.574	41.3301
479.949	143.668
483.324	567.045
486.699	831.328
490.074	1135.24
493.448	1470.55
496.823	1583.96
500.198	1594.12
503.573	1559.51
506.948	1567.27
510.322	1637.55
513.697	2014.28
517.072	2510.39
520.447	3247.91
523.822	3524.65
527.197	3036.21
530.571	1815.33
533.946	1254.08
537.321	1002.19
540.696	809.084
544.071	475.766
547.445	15.8696
550.82	57.3687
554.195	442.122
557.57	1167.12
560.945	2106.26
564.319	2905.02
567.694	2865.64
571.069	1809.9
574.444	1327.81
577.819	1517.22
581.194	2138.66
584.568	1737.47
587.943	330.74
591.318	215.154
594.693	227.048
598.068	70.1963
601.443	513.349
604.817	1211.66
608.192	2230.27
611.567	3985.12
614.942	6798.34
618.317	10115.6
621.692	14252.3
625.066	17991.3
628.441	18419.5
631.816	13005.6
635.191	7956.96
638.566	4457.32
641.94	2681.22
645.315	1753.62
648.69	1333.77
652.065	1053.86
655.44	1005.41
658.814	1108.09
662.189	1133.99
665.564	1229.62
668.939	1116.48
672.314	1011.87
675.688	712.497
679.063	637.619
682.438	418.144
685.813	370.262
689.188	218.242
692.563	163.131
695.937	63.5596
699.312	78.583
702.687	103.023
706.062	10.0195
709.437	174.565
712.812	441.281
716.186	577.14
719.561	763.216
722.936	907.335
726.311	955.088
729.686	1017.78
733.06	1081.2
736.435	1784.54
739.81	3017.18
743.185	4399.48
746.56	5136.8
749.934	2999.77
753.309	937.751
756.684	204.11
760.059	22.2393
763.434	82.3242
766.809	327.782
770.183	1062.27
773.558	2072.37
776.933	3297.28
780.308	4698.99
783.683	6018.08
787.058	6835.87
790.432	6083.27
793.807	4321.89
797.182	2860.92
800.557	1980.39
803.932	1275.25
807.306	949.095
810.681	631.89
814.056	428.663
817.431	327.263
820.806	31.1841
824.181	64.4551
827.555	4.32959
830.93	54.2095
834.305	70.729
837.68	28.7476
841.055	0.828125
844.429	18.9321
847.804	27.6821
851.179	61.9414
854.554	77.2061
857.929	68.0981
861.303	187.208
864.678	300.286
868.053	543.728
871.428	812.488
874.803	892.101
878.178	965.428
881.552	845.722
884.927	688.256
888.302	570.445
891.677	668.544
895.052	644.789
898.427	844.632
901.801	1116.1
905.176	1856.9
908.551	3380.55
911.926	5324.24
915.301	6814.32
918.675	4389.02
922.05	2042.91
925.425	1268.76
928.8	837.32
932.175	552.239
935.549	359.67
938.924	119.218
942.299	42.5947
945.674	58.626
949.049	104.454
952.424	183.933
955.798	143.781
959.173	154.269
962.548	94.1387
965.923	199.139
969.298	296.88
972.673	490.519
976.047	719.812
979.422	973.713
982.797	1222.24
986.172	1550.65
989.547	1736.88
992.921	1750.87
996.296	1755.24
999.671	1622.57
1003.05	1760.44
1006.42	1938.83
1009.79	2154.59
1013.17	2092.57
1016.54	1788.47
1019.92	1309.41
1023.29	811.707
1026.67	602.12
1030.04	381.42
1033.42	229.074
1036.79	93.3252
1040.17	75.2383
1043.54	19.2832
1046.92	37.8272
1050.29	6.23438
1053.67	34.0312
1057.04	22.6201
1060.42	23.3252
1063.79	112.289
1067.17	200.463
1070.54	405.478
1073.92	421.797
1077.29	572.648
1080.67	781.852
1084.04	795.107
1087.42	943.369
1090.79	959.917
1094.17	866.671
1097.54	754.304
1100.92	695.958
1104.29	551.836
1107.66	370.442
1111.04	242.032
1114.41	96.8994
1117.79	119.499
1121.16	3.71777
1124.54	22.0371
1127.91	34.9355
1131.29	100.144
1134.66	23.8662
1138.04	103.87
1141.41	174.186
1144.79	237.481
1148.16	287.604
1151.54	336.521
1154.91	382.868
1158.29	469.519
1161.66	615.438
1165.04	822.402
1168.41	1009.42
1171.79	1198.78
1175.16	1387.31
1178.54	1272.9
1181.91	1146.94
1185.29	806.753
1188.66	628.002
1192.04	394.208
1195.41	285.958
1198.79	184.443
1202.16	160.539
1205.54	85.2695
1208.91	67.3086
1212.29	46.1377
1215.66	31.3223
1219.03	34.8486
1222.41	28.1426
1225.78	24.8047
1229.16	74.2188
1232.53	0.762695
1235.91	48.2627
1239.28	94.2432
1242.66	100.368
1246.03	138.902
1249.41	182.185
1252.78	259.144
1256.16	252.042
1259.53	246.52
1262.91	311.107
1266.28	176.581
1269.66	21.2695
1273.03	84.1094
1276.41	40.2315
1279.78	24.2783
1283.16	47.3447
1286.53	28.4258
1289.9	67.2519
1293.28	115.538
1296.65	104.67
1300.03	59.3438
1303.4	96.2842
1306.78	45.416
1310.15	30.7549
