Measurement: Raman, 785 nm, unoriented, Raman Data Processed
Mineral: Uralborite
Rruff sample: R061140
Ideal chemistry: CaB_2_O_2_(OH)_4_
Locality: Fuka mine, Bicchu-cho, Okayama Prefecture, Japan
Source: Michael Scott
Description: Colorless massive
Raman shift (cm-1)	intensity
128.542	0
131.434	245.902
134.327	178.394
137.22	2.55646
140.113	46.0906
143.005	270.198
145.898	456.127
148.791	413.41
151.683	411.114
154.576	458.459
157.469	387.791
160.361	224.979
163.254	189.332
166.147	289.221
169.04	148.782
171.932	7.24255
174.825	11.0449
177.718	9.86908
180.61	54.3689
183.503	116.045
186.396	274.243
189.288	307.199
192.181	370.749
195.074	605.123
197.966	636.065
200.859	540.874
203.752	530.58
206.645	301.929
209.537	78.0628
212.43	82.0041
215.323	127.449
218.215	169.407
221.108	242.231
224.001	252.173
226.893	190.982
229.786	196.469
232.679	175.494
235.572	163.761
238.464	196.518
241.357	167.75
244.25	173.107
247.142	221.779
250.035	212.534
252.928	143.726
255.821	53.5491
258.713	20.8775
261.606	65.7695
264.499	70.7725
267.391	126.178
270.284	265.354
273.177	392.425
276.069	275.748
278.962	138.269
281.855	30.7486
284.748	7.01032
287.64	23.5279
290.533	21.0686
293.426	13.7935
296.318	19.067
299.211	113.355
302.104	208.329
304.996	329.131
307.889	393.065
310.782	532.177
313.675	700.888
316.567	773.962
319.46	780.929
322.353	711.297
325.245	652.052
328.138	651.85
331.031	455.385
333.923	230.482
336.816	82.6075
339.709	37.7523
342.601	28.9064
345.494	72.4276
348.387	125.603
351.28	176.916
354.172	262.696
357.065	352.995
359.958	347.716
362.85	392.935
365.743	428.197
368.636	469.743
371.529	405.289
374.421	230.143
377.314	37.1667
380.207	7.05841
383.099	11.391
385.992	71.4676
388.885	56.1004
391.777	41.9551
394.67	32.9465
397.563	22.2959
400.455	1.01483
403.348	21.0735
406.241	93.9465
409.134	141.66
412.026	255.1
414.919	468.858
417.812	669.305
420.704	1021.32
423.597	1340.71
426.49	1584.61
429.382	1528.21
432.275	1248.37
435.168	1044.53
438.06	1027.04
440.953	1117.57
443.846	1070.27
446.739	920.081
449.631	640.389
452.524	392.036
455.417	335.175
458.309	331.418
461.202	286.829
464.095	208.05
466.988	48.8922
469.88	16.4208
472.773	48.9015
475.666	1.20996
478.558	16.5889
481.451	25.7208
484.344	88.3421
487.236	147.65
490.129	204.663
493.022	255.727
495.915	257.18
498.807	251.988
501.7	273.062
504.593	247.132
507.485	252.808
510.378	285.273
513.271	338.59
516.163	456.355
519.056	629.102
521.949	780.111
524.842	801.733
527.734	676.162
530.627	437.967
533.52	265.893
536.412	166.531
539.305	131.424
542.198	99.8711
545.091	33.4107
547.983	25.8274
550.876	58.5546
553.769	154.646
556.661	287.305
559.554	341.815
562.447	467.447
565.339	540.368
568.232	455.427
571.125	272.245
574.017	150.048
576.91	149.549
579.803	214.164
582.696	246.487
585.588	118.463
588.481	16.7072
591.374	42.4775
594.266	20.8438
597.159	42.4518
600.052	124.776
602.944	254.588
605.837	433.381
608.73	690.529
611.622	1188.82
614.515	1835.8
617.408	2568.14
620.301	3433.79
623.193	4321.22
626.086	5174.85
628.979	4881.73
631.871	3610.55
634.764	2262.96
637.657	1410.75
640.549	905.589
643.442	581.5
646.335	436.919
649.228	335.394
652.12	258.71
655.013	230.502
657.906	228.358
660.798	169.24
663.691	210.318
666.584	192.477
669.476	161.231
672.369	128.134
675.262	78.3314
678.155	79.0792
681.047	37.4992
683.94	42.4369
686.833	9.99329
689.725	20.0637
692.618	4.95465
695.511	18.8486
698.404	13.7847
701.296	6.00903
704.189	3.16052
707.082	75.4559
709.974	105.539
712.867	123.704
715.76	191.567
718.652	212.061
721.545	244.711
724.438	334.758
727.331	361.544
730.223	380.802
733.116	409.348
736.009	545.126
738.901	810.699
741.794	1207.99
744.687	1519.18
747.579	1565.43
750.472	987.278
753.365	445.014
756.257	189.464
759.15	67.2266
762.043	59.6392
764.936	49.5431
767.828	80.5659
770.721	135.446
773.614	208.954
776.506	349.66
779.399	494.968
782.292	691.218
785.184	813.641
788.077	910.243
790.97	811.71
793.862	632.79
796.755	478.077
799.648	339.01
802.541	275.209
805.433	228.227
808.326	177.256
811.219	134.416
814.111	82.757
817.004	34.675
819.897	47.6484
822.79	22.6995
825.682	1.70743
828.575	9.18503
831.468	13.2496
834.36	23.3759
837.253	5.42087
840.146	6.30673
843.038	15.615
845.931	12.6533
848.824	12.0735
851.717	0.016876
854.609	21.3622
857.502	13.3373
860.395	17.0648
863.287	45.2607
866.18	65.3452
869.073	109.462
871.966	136.447
874.858	183.247
877.751	198.113
880.644	181.358
883.536	183.006
886.429	169.724
889.322	152.291
892.214	206.989
895.107	201.105
898	228.835
900.893	293.863
903.785	399.14
906.678	660.705
909.571	1055.61
912.463	1528.95
915.356	1973.43
918.249	1449.25
921.141	791.851
924.034	485.158
926.927	339.546
929.819	255.545
932.712	169.697
935.605	131
938.498	68.6332
941.39	29.7145
944.283	15.6047
947.176	9.47211
950.068	3.31189
952.961	17.6032
955.854	7.29889
958.746	5.91339
961.639	23.3981
964.532	38.9339
967.424	32.0756
970.317	75.7776
973.21	63.6198
976.103	129.501
978.995	143.3
981.888	226.205
984.781	258.051
987.673	333.912
990.566	386.619
993.459	390.154
996.351	384.591
999.244	370.564
1002.14	340.159
1005.03	388.283
1007.92	400.363
1010.82	411.586
1013.71	387.414
1016.6	357.098
1019.49	280.767
1022.39	210.506
1025.28	134.544
1028.17	109.065
1031.06	72.2633
1033.96	55.3944
1036.85	34.3721
1039.74	5.06506
1042.63	3.63214
1045.53	29.4722
1048.42	38.5585
1051.31	19.1694
1054.2	1.6958
1057.1	2.65411
1059.99	4.29614
1062.88	8.44095
1065.78	33.5733
1068.67	47.4885
1071.56	45.1818
1074.45	78.8974
1077.35	93.6075
1080.24	100.461
1083.13	102.862
1086.03	111.467
1088.92	129.018
1091.81	129.189
1094.7	107.738
1097.6	112.195
1100.49	86.5037
1103.38	96.1492
1106.27	55.3516
1109.17	48.8571
1112.06	57.0232
1114.95	11.8084
1117.85	0.350586
1120.74	4.55597
1123.63	24.2126
1126.52	13.7392
1129.42	4.54279
1132.31	22.6288
1135.2	28.0947
1138.09	10.5284
1140.99	66.2111
1143.88	38.9518
1146.77	68.0726
1149.66	73.9216
1152.56	102.611
1155.45	99.2517
1158.34	119.357
1161.23	148.013
1164.13	174.262
1167.02	201.864
1169.91	250.595
1172.81	316.835
1175.7	358.667
1178.59	336.168
1181.48	286.961
1184.38	228.319
1187.27	212.709
1190.16	117.317
1193.06	115.504
1195.95	84.6459
1198.84	68.9641
1201.73	32.2985
1204.63	57.1446
1207.52	31.3408
1210.41	31.6054
1213.3	12.1305
1216.2	18.2017
1219.09	10.0602
1221.98	27.2695
1224.88	37.9571
1227.77	8.66968
1230.66	28.5921
1233.55	25.1081
1236.45	13.1679
