Measurement: Raman, 785 nm, unoriented, Raman Data Processed
Mineral: Uramarsite
Rruff sample: R061122
Ideal chemistry: N^3-^H_4_(U^6+^O_2_)As^5+^O_4_3H_2_O
Locality: Bota-Burum Uranium deposit, Kazakhstan
Source: Michael Scott
Description: Brownish green cleavage fragment, co-type material
Raman shift (cm-1)	intensity
160.681	0
163.573	4.76837
166.466	7.44177
169.359	0.935486
172.252	25.9066
175.144	37.6126
178.037	60.2073
180.93	76.1284
183.822	139.302
186.715	233.824
189.608	240.389
192.5	304.345
195.393	343.992
198.286	330.303
201.179	306.384
204.071	246.779
206.964	171.133
209.857	119.664
212.749	78.8
215.642	27.1592
218.535	27.407
221.428	25.8031
224.32	6.70221
227.213	1.1214
230.106	9.77942
232.998	7.59906
235.891	7.3208
238.784	0.3078
241.676	31.3728
244.569	18.681
247.462	53.8678
250.355	20.6833
253.247	30.3928
256.14	52.4645
259.033	46.1744
261.925	42.5044
264.818	43.9228
267.711	48.8394
270.603	46.0706
273.496	66.3388
276.389	66.6234
279.281	52.9042
282.174	47.4218
285.067	39.2031
287.96	50.9114
290.852	46.5632
293.745	40.1945
296.638	47.009
299.53	48.9151
302.423	27.1525
305.316	28.2474
308.209	24.7693
311.101	20.0944
313.994	41.9587
316.887	25.0283
319.779	21.4638
322.672	1.05133
325.565	24.1126
328.457	18.4014
331.35	2.93677
334.243	4.0141
337.135	12.0267
340.028	15.2119
342.921	4.09747
345.813	22.5959
348.706	18.2882
351.599	3.36316
354.492	20.1038
357.384	24.4031
360.277	30.1785
363.17	36.1715
366.062	36.3055
368.955	16.3096
371.848	16.2382
374.74	29.9703
377.633	36.6899
380.526	36.1041
383.419	40.8914
386.311	23.1155
389.204	45.9278
392.097	44.4348
394.989	51.2243
397.882	24.656
400.775	37.4081
403.668	38.8283
406.56	10.9979
409.453	32.6043
412.346	24.8873
415.238	27.4905
418.131	7.95428
421.024	26.5353
423.916	2.31757
426.809	10.8668
429.702	11.2463
432.594	2.72882
435.487	13.0515
438.38	15.5222
441.273	26.7416
444.165	44.2191
447.058	5.23456
449.951	34.5711
452.843	28.9587
455.736	38.614
458.629	32.2309
461.522	36.8979
464.414	53.2337
467.307	59.7861
470.2	40.9951
473.092	58.1233
475.985	68.3527
478.878	72.0881
481.77	55.5707
484.663	68.9278
487.556	82.9774
490.449	46.2007
493.341	61.2489
496.234	45.9081
499.127	25.3433
502.019	42.7175
504.912	11.9874
507.805	18.8616
510.697	6.89462
513.59	11.7854
516.483	14.6364
519.375	18.604
522.268	15.323
525.161	14.9352
528.054	0.037018
530.946	32.1386
533.839	7.17578
536.732	30.7045
539.624	9.95401
542.517	13.9026
545.41	14.5464
548.303	14.788
551.195	7.98428
554.088	21.5824
556.981	6.09531
559.873	31.404
562.766	24.741
565.659	2.01752
568.551	8.46768
571.444	26.299
574.337	30.1902
577.23	29.5384
580.122	35.7401
583.015	37.6538
585.908	57.6332
588.8	39.5843
591.693	34.1061
594.586	37.4677
597.478	56.5028
600.371	78.885
603.264	41.9816
606.156	49.8914
609.049	68.8321
611.942	66.3169
614.835	69.9311
617.727	61.1295
620.62	87.4246
623.513	95.9065
626.405	90.5219
629.298	100.816
632.191	90.2295
635.083	85.0486
637.976	78.919
640.869	65.8879
643.761	50.5776
646.654	65.7379
649.547	59.4492
652.44	45.8159
655.332	60.6418
658.225	49.1601
661.118	51.7138
664.01	37.8991
666.903	41.3458
669.796	59.9857
672.688	23.0236
675.581	40.6517
678.474	51.2246
681.367	40.7889
684.259	37.1548
687.152	45.4988
690.045	53.8036
692.937	31.977
695.83	23.5614
698.723	37.8313
701.615	27.4306
704.508	7.74402
707.401	8.86969
710.294	17.4609
713.186	6.79394
716.079	20.6869
718.972	5.48163
721.864	3.25656
724.757	6.50461
727.65	1.87827
730.543	32.3045
733.435	10.2991
736.328	2.98843
739.221	13.3677
742.113	2.28714
745.006	21.988
747.899	20.6229
750.791	6.61151
753.684	13.6252
756.577	16.1594
759.47	38.0685
762.362	49.2188
765.255	61.507
768.148	77.2979
771.04	120.111
773.933	180.056
776.826	197.638
779.718	263.721
782.611	320.276
785.504	432.094
788.396	519.785
791.289	681.967
794.182	992.944
797.075	1425.58
799.967	2068.71
802.86	2884.37
805.753	3348.04
808.645	3232.29
811.538	2731.13
814.431	2240.66
817.323	1752.06
820.216	1388.34
823.109	1024.46
826.002	693.987
828.894	463.371
831.787	312.08
834.68	241.984
837.572	162.365
840.465	125.931
843.358	105.754
846.25	109.964
849.143	62.6672
852.036	40.7869
854.929	61.6873
857.821	53.9211
860.714	58.6098
863.607	33.8622
866.499	41.2553
869.392	35.2533
872.285	15.3448
875.177	33.0096
878.07	42.551
880.963	25.5751
883.856	63.1263
886.748	65.8472
889.641	126.839
892.534	167.95
895.426	194.436
898.319	215.546
901.212	225.947
904.104	202.758
906.997	120.099
909.89	101.505
912.783	29.7127
915.675	41.2853
918.568	3.42554
921.461	10.6063
924.353	3.18381
927.246	11.2042
930.139	4.69736
933.031	11.2156
935.924	4.54764
938.817	1.89148
941.71	4.79916
944.602	1.63739
947.495	3.15726
950.388	15.6899
953.28	18.6527
956.173	35.7401
959.066	32.8424
961.958	45.1439
964.851	85.0232
967.744	106.548
970.636	141.778
973.529	184.089
976.422	202.171
979.315	230.931
982.207	219.03
985.1	227.257
987.993	217.497
990.885	183.573
993.778	215.49
996.671	194.939
999.563	167.198
1002.46	157.569
1005.35	107.724
1008.24	84.0522
1011.13	81.7676
1014.03	49.98
1016.92	56.3834
1019.81	2.96674
1022.71	12.5552
1025.6	33.4951
1028.49	21.7125
1031.38	0.850586
1034.28	33.1149
1037.17	23.1031
1040.06	22.8831
1042.95	16.164
1045.85	32.0624
1048.74	27.0785
1051.63	20.5667
1054.53	30.3484
1057.42	31.9774
1060.31	18.7675
1063.2	15.1684
1066.1	22.6827
1068.99	7.44104
1071.88	7.30917
1074.77	24.2171
1077.67	7.25382
1080.56	6.32288
1083.45	5.33255
1086.34	11.5858
1089.24	37.2731
1092.13	30.0107
1095.02	18.1522
1097.91	9.67947
1100.81	31.6733
1103.7	19.1514
1106.59	14.7987
1109.49	11.0518
1112.38	11.573
1115.27	2.14774
1118.16	23.4038
1121.06	14.3726
1123.95	28.279
1126.84	21.7989
1129.73	23.5865
1132.63	0.572693
1135.52	22.0455
1138.41	27.8893
1141.31	19.4843
1144.2	18.0471
1147.09	38.5358
1149.98	22.0901
1152.88	24.2986
1155.77	43.6379
1158.66	9.056
1161.56	11.4558
1164.45	15.032
1167.34	16.9844
1170.23	19.399
1173.12	17.021
1176.02	30.5739
1178.91	16.6216
1181.8	19.2659
1184.7	15.3001
1187.59	37.4119
1190.48	35.8073
1193.37	23.1264
1196.27	9.53802
1199.16	26.9763
1202.05	31.517
1204.94	3.02429
1207.84	9.33566
1210.73	17.4398
1213.62	8.17667
1216.52	13.7122
1219.41	3.35745
1222.3	11.6168
1225.19	15.7484
1228.09	24.0674
1230.98	25.4789
1233.87	3.82104
1236.77	7.96207
1239.66	15.0826
1242.55	16.8269
1245.44	28.5055
1248.34	9.24597
1251.23	29.8375
1254.12	4.5116
1257.01	33.6828
1259.91	2.73157
1262.8	14.9338
1265.69	10.4901
