Measurement: Raman, 532 nm, unoriented, Raman Data Processed
Mineral: Uramarsite
Rruff sample: R061122
Ideal chemistry: N^3-^H_4_(U^6+^O_2_)As^5+^O_4_3H_2_O
Locality: Bota-Burum Uranium deposit, Kazakhstan
Source: Michael Scott
Description: Brownish green cleavage fragment, co-type material
Raman shift (cm-1)	intensity
138.921	0
141.814	20.3823
144.706	56.0509
147.599	93.3208
150.492	77.5596
153.385	85.3126
156.277	62.0875
159.17	40.4091
162.063	67.8386
164.955	71.5011
167.848	88.5194
170.741	93.6992
173.633	97.5477
176.526	108.796
179.419	117.648
182.311	131.06
185.204	171.717
188.097	209.238
190.989	238.345
193.882	263.941
196.775	238.942
199.668	231.33
202.56	190.401
205.453	139.484
208.346	75.6482
211.238	52.0256
214.131	65.6809
217.024	88.5075
219.917	32.1477
222.809	1.19067
225.702	25.4343
228.595	13.4962
231.487	5.70911
234.38	13.2156
237.273	0.077515
240.165	35.4427
243.058	27.7086
245.951	7.29797
248.844	25.4495
251.736	7.44287
254.629	23.944
257.522	37.6799
260.414	48.2715
263.307	27.3864
266.2	43.3341
269.092	31.7598
271.985	48.071
274.878	52.8563
277.771	29.9568
280.663	17.2148
283.556	24.4913
286.449	29.4047
289.341	43.6235
292.234	23.3651
295.127	30.6324
298.019	44.208
300.912	25.8357
303.805	42.8461
306.697	41.3552
309.59	17.6096
312.483	16.2446
315.375	23.9559
318.268	31.5029
321.161	14.5137
324.054	1.00598
326.946	19.1666
329.839	20.5395
332.732	7.37439
335.625	22.3534
338.517	24.0609
341.41	3.65271
344.303	19.2207
347.195	37.5779
350.088	3.27905
352.981	0.782837
355.873	9.95178
358.766	15.8213
361.659	19.1288
364.551	29.0317
367.444	50.6887
370.337	53.0038
373.229	37.7267
376.122	29.2426
379.015	44.2552
381.908	65.3621
384.8	50.5455
387.693	81.5128
390.586	69.124
393.478	54.007
396.371	51.3402
399.264	37.9042
402.156	36.4642
405.049	27.8154
407.942	56.6435
410.835	66.4783
413.727	14.4938
416.62	0.086914
419.513	7.0603
422.405	8.81812
425.298	19.3872
428.191	35.4062
431.084	18.5443
433.976	13.8232
436.869	7.69568
439.762	15.2316
442.654	10.986
445.547	22.7028
448.44	16.2386
451.332	2.47693
454.225	12.8014
457.118	29.3455
460.01	28.078
462.903	23.6143
465.796	27.8752
468.689	25.0692
471.581	55.2478
474.474	44.99
477.367	58.679
480.259	51.7819
483.152	45.2788
486.045	40.5144
488.937	44.3141
491.83	50.4788
494.723	8.02246
497.615	28.1844
500.508	30.9685
503.401	58.3904
506.294	18.2319
509.186	19.6774
512.079	16.1909
514.972	16.9961
517.864	23.543
520.757	36.2128
523.65	17.9399
526.543	30.4279
529.435	4.63098
532.328	7.26221
535.221	18.5345
538.113	2.20544
541.006	40.7079
543.899	23.5002
546.791	52.123
549.684	34.7759
552.577	32.6555
555.47	28.7756
558.362	48.2046
561.255	23.2712
564.148	45.2502
567.04	47.022
569.933	47.6118
572.826	56.094
575.718	54.303
578.611	50.1973
581.504	59.697
584.396	44.4495
587.289	81.0964
590.182	53.3547
593.075	76.7739
595.967	56.6384
598.86	18.9055
601.753	64.7998
604.645	54.0327
607.538	50.9595
610.431	64.5332
613.323	54.5977
616.216	57.6301
619.109	75.0017
622.001	81.3037
624.894	85.136
627.787	86.8774
630.68	69.1052
633.572	47.8164
636.465	2.52075
639.358	22.6641
642.25	7.48731
645.143	31.0073
648.036	37.7043
650.928	18.0212
653.821	30.6694
656.714	18.147
659.607	11.5181
662.499	32.7859
665.392	29.9856
668.285	74.9922
671.177	31.5317
674.07	45.3689
676.963	44.6611
679.856	77.5408
682.748	41.544
685.641	52.2627
688.534	41.8132
691.426	56.3401
694.319	65.9448
697.212	75.2302
700.104	60.771
702.997	58.3892
705.89	50.3645
708.783	34.574
711.675	55.0786
714.568	36.1472
717.461	20.7839
720.353	18.5164
723.246	26.0469
726.139	0.724365
729.031	8.87183
731.924	8.07471
734.817	4.94507
737.71	18.1077
740.602	12.3626
743.495	11.5535
746.388	17.0645
749.28	19.8799
752.173	15.6555
755.066	5.78906
757.958	9.76367
760.851	23.9902
763.744	61.0857
766.636	88.1118
769.529	127.282
772.422	177.879
775.315	225.613
778.207	279.161
781.1	345.877
783.993	480.158
786.885	620.996
789.778	870.932
792.671	1196.57
795.563	1615.48
798.456	2056.95
801.349	2369.55
804.241	2434.95
807.134	2265.1
810.027	1902.01
812.92	1539.86
815.812	1328.21
818.705	1160.35
821.598	1029.34
824.49	836.581
827.383	673.85
830.276	508.059
833.168	447.627
836.061	303.077
838.954	231.446
841.847	173.266
844.739	142.596
847.632	134.877
850.525	111.729
853.417	84.2964
856.31	78.9346
859.203	79.6323
862.096	66.7109
864.988	47.8935
867.881	85.8074
870.774	62.7405
873.666	59.0903
876.559	74.4915
879.452	111.517
882.344	116.893
885.237	120.485
888.13	118.882
891.023	142.64
893.915	149.815
896.808	168.319
899.701	135.539
902.593	116.859
905.486	134.03
908.379	89.7842
911.271	21.946
914.164	29.9491
917.057	16.6902
919.949	15.2438
922.842	3.88196
925.735	12.5658
928.628	3.6637
931.52	21.4473
934.413	14.1699
937.306	15.5815
940.198	15.8749
943.091	19.4027
945.984	17.1746
948.876	48.8849
951.769	46.1832
954.662	32.6414
957.554	66.9445
960.447	81.021
963.34	105.287
966.233	131.912
969.125	166.674
972.018	208.06
974.911	207.74
977.803	265.42
980.696	307.636
983.589	338.524
986.481	305.84
989.374	313.379
992.267	291.14
995.16	284.296
998.052	228.51
1000.95	221.332
1003.84	191.48
1006.73	181.507
1009.62	157.747
1012.52	97.9817
1015.41	80.2887
1018.3	34.4755
1021.19	57.7192
1024.09	66.8315
1026.98	73.1243
1029.87	15.7264
1032.77	29.2541
1035.66	39.2527
1038.55	6.9823
1041.44	25.075
1044.34	3.76807
1047.23	30.9477
1050.12	11.444
1053.01	28.0814
1055.91	9.49927
1058.8	0.358032
1061.69	18.5588
1064.58	16.2611
1067.48	26.5853
1070.37	4.448
1073.26	25.9708
1076.15	27.2371
1079.05	12.5657
1081.94	2.5354
1084.83	25.3181
1087.73	15.5027
1090.62	9.99854
1093.51	37.349
1096.4	5.60877
1099.3	13.136
1102.19	5.05396
1105.08	4.90637
1107.97	4.3114
1110.87	17.5207
1113.76	14.4548
1116.65	8.43811
1119.55	9.44836
1122.44	4.10254
1125.33	40.9708
1128.22	8.33496
1131.12	20.5563
1134.01	41.2905
1136.9	14.7794
1139.8	18.9177
1142.69	35.6
1145.58	40.3636
1148.47	31.6086
1151.37	61.5215
1154.26	20.1899
1157.15	14.2376
1160.04	31.9717
1162.94	35.575
1165.83	15.5393
1168.72	37.9973
1171.61	13.8626
1174.51	18.7466
1177.4	44.6329
1180.29	17.0373
1183.18	16.28
1186.08	13.5617
1188.97	54.6697
1191.86	12.0568
1194.76	23.0633
1197.65	28.4139
1200.54	22.4563
1203.43	24.0105
1206.33	38.2152
1209.22	35.6388
1212.11	23.7492
1215.01	21.8866
1217.9	33.898
1220.79	4.59253
1223.68	21.7543
1226.58	17.7495
1229.47	23.1074
1232.36	11.3901
1235.25	22.5254
1238.15	15.9533
1241.04	4.57397
1243.93	5.34009
1246.82	44.2684
1249.72	38.5917
1252.61	16.7941
1255.5	39.5067
1258.39	13.9255
1261.29	26.4056
1264.18	30.7028
1267.07	13.8614
1269.97	20.781
1272.86	41.7196
1275.75	25.6033
1278.64	21.2759
1281.54	2.66211
1284.43	27.8957
1287.32	1.22144
1290.21	6.00439
