Measurement: Raman, 785 nm, unoriented, Raman Data Processed
Mineral: Uranopilite
Rruff sample: R060374
Ideal chemistry: (UO_2_)_6_SO_4_O_2_(OH)_6_14H_2_O
Locality: Apex mine, Lander County, Nevada, USA
Source: Michael Scott
Description: Mass of yellow acicular crystals
Raman shift (cm-1)	intensity
140.33	0
143.223	69.975
146.115	698.162
149.008	1207.44
151.901	1517.71
154.793	1436.23
157.686	1359.74
160.579	1439.33
163.471	1860.82
166.364	2264.76
169.257	2680.63
172.15	2994.64
175.042	3272.84
177.935	3493.12
180.828	3630.72
183.72	3691.79
186.613	3722.98
189.506	3590.48
192.398	3327.15
195.291	3040.22
198.184	2615.48
201.077	2138.06
203.969	1323.91
206.862	735.962
209.755	338.228
212.647	114.456
215.54	120.055
218.433	241.842
221.326	250.837
224.218	201.235
227.111	6.395
230.004	195.46
232.896	95.525
235.789	288.642
238.682	510.447
241.574	958.738
244.467	1365.06
247.36	1675.39
250.253	2176.97
253.145	2547.2
256.038	2661.44
258.931	2329.96
261.823	1628.9
264.716	1026.19
267.609	612.722
270.501	251.316
273.394	20.022
276.287	45.272
279.18	6.139
282.072	113.332
284.965	371.266
287.858	479.751
290.75	575.128
293.643	577.926
296.536	542.743
299.428	491.994
302.321	564.827
305.214	600.228
308.107	833.71
310.999	1092.87
313.892	1378.72
316.785	1621.26
319.677	1606.98
322.57	1579.6
325.463	1272.2
328.355	1075.94
331.248	791.325
334.141	602.06
337.034	351.912
339.926	280.503
342.819	184.298
345.712	85.558
348.604	66.129
351.497	107.593
354.39	64.582
357.283	80.248
360.175	7.514
363.068	22.906
365.961	23.007
368.853	30.932
371.746	37.514
374.639	104.876
377.531	113.7
380.424	192.877
383.317	218.227
386.21	268.63
389.102	384.492
391.995	478.686
394.888	617.663
397.78	665.75
400.673	731.225
403.566	758.153
406.458	751.352
409.351	696.661
412.244	652.103
415.137	513.544
418.029	378.312
420.922	275.751
423.815	239.003
426.707	120.241
429.6	42.821
432.493	21.226
435.385	48.881
438.278	42.268
441.171	13.728
444.064	86.374
446.956	64.056
449.849	18.753
452.742	9.305
455.634	5.358
458.527	37.282
461.42	63.639
464.312	183.513
467.205	212.674
470.098	273.023
472.991	312.774
475.883	340.254
478.776	275.898
481.669	185.241
484.561	134.952
487.454	35.945
490.347	75.79
493.239	87.228
496.132	86.478
499.025	134.67
501.918	127.383
504.81	234.857
507.703	334.318
510.596	501.681
513.488	593.38
516.381	722.999
519.274	942.138
522.166	1172.54
525.059	1500.32
527.952	1806.98
530.844	2235.95
533.737	2672.01
536.63	3199.76
539.523	3683.49
542.415	3946.29
545.308	4239.75
548.201	4282.14
551.093	4252.03
553.986	4297.53
556.879	4022.24
559.771	3802.93
562.664	2981.57
565.557	2269.93
568.45	1658.33
571.342	1117.94
574.235	782.16
577.128	595.418
580.02	455.877
582.913	311.124
585.806	239.902
588.698	241.984
591.591	168.75
594.484	129.134
597.377	133.302
600.269	150.301
603.162	189.845
606.055	119.728
608.947	116.742
611.84	78.516
614.733	40.01
617.625	65.034
620.518	35.22
623.411	86.694
626.304	19.343
629.196	5.497
632.089	17.282
634.982	26.071
637.875	48.391
640.767	58.167
643.66	4.241
646.553	74.617
649.445	78.515
652.338	164.194
655.231	225.201
658.123	346.871
661.016	364.16
663.909	448.97
666.802	379.692
669.694	293.795
672.587	247.729
675.48	145.968
678.372	131.425
681.265	71.438
684.158	74.875
687.05	85.283
689.943	113.076
692.836	40.01
695.729	94.611
698.621	112.82
701.514	113.404
704.407	84.944
707.299	50.906
710.192	90.873
713.085	52.004
715.977	46.427
718.87	73.822
721.763	58.316
724.656	47.869
727.548	6.354
730.441	9.271
733.334	26.442
736.226	11.392
739.119	26.761
742.012	28.927
744.904	13.81
747.797	23.448
750.69	21.491
753.583	11.507
756.475	33.379
759.368	30.291
762.261	12.196
765.153	6.08
768.046	64.82
770.939	56.105
773.831	22.086
776.724	104.291
779.617	48.145
782.51	134.393
785.402	234.698
788.295	275.545
791.188	388.439
794.08	429.456
796.973	591.144
799.866	755.368
802.758	1014.43
805.651	1518.33
808.544	2100.83
811.437	3107.82
814.329	4428.62
817.222	6011.27
820.115	6910.01
823.007	7925.43
825.9	9594.77
828.793	12694.7
831.685	17506.9
834.578	22918
837.471	28183.6
840.364	32422.5
843.256	31780.3
846.149	23246.3
849.042	12252.7
851.934	5936.27
854.827	2968.78
857.72	1606.72
860.612	879.72
863.505	544.44
866.398	304.258
869.291	150.621
872.183	70.616
875.076	5.497
877.969	12.416
880.861	2.567
883.754	53.693
886.647	27.197
889.539	42.825
892.432	49.806
895.325	49.115
898.218	66.84
901.11	5.198
904.003	28.803
906.896	13.87
909.788	55.665
912.681	59.345
915.574	83.434
918.466	62.502
921.359	47.168
924.252	21.959
927.144	28.54
930.037	18.728
932.93	45.588
935.823	50.844
938.715	64.104
941.608	56.481
944.501	8.605
947.393	19.038
950.286	23.46
953.179	28.543
956.071	35.79
958.964	4.857
961.857	0.826
964.75	4.548
967.642	45.219
970.535	55.088
973.428	69.539
976.32	42.554
979.213	65.945
982.106	109.879
984.998	141.751
987.891	156.352
990.784	157.489
993.677	215.59
996.569	311.861
999.462	473.729
1002.36	1065.66
1005.25	2545.02
1008.14	5153.97
1011.03	7132.89
1013.93	4486.77
1016.82	1641.12
1019.71	668.297
1022.6	361.361
1025.5	229.519
1028.39	122.44
1031.28	100.968
1034.17	80.406
1037.07	15.521
1039.96	6.784
1042.85	35.402
1045.74	52.196
1048.64	4.085
1051.53	11.058
1054.42	12.996
1057.32	12.541
1060.21	17.293
1063.1	10.195
1065.99	3.517
1068.89	12.193
1071.78	35.811
1074.67	25.201
1077.57	72.506
1080.46	140.126
1083.35	211.237
1086.24	302.42
1089.14	425.67
1092.03	500.017
1094.92	640.21
1097.81	724.76
1100.71	696.178
1103.6	654.172
1106.49	676.967
1109.38	675.052
1112.28	906.87
1115.17	1084
1118.06	1105.66
1120.95	929.699
1123.85	689.332
1126.74	529.617
1129.63	426.648
1132.53	378.051
1135.42	395.411
1138.31	434.557
1141.2	509.54
1144.1	584.053
1146.99	484.013
1149.88	306.404
1152.78	183.831
1155.67	140.865
1158.56	46.187
1161.45	43.366
1164.35	63.262
1167.24	24.292
1170.13	21.771
1173.02	6.328
1175.92	21.793
1178.81	20.872
1181.7	9.015
1184.6	25.961
1187.49	22.819
1190.38	4.624
1193.27	13.906
1196.17	43.009
1199.06	18.244
1201.95	11.943
1204.84	32.637
1207.74	8.706
1210.63	16.502
1213.52	24.077
1216.41	56.047
1219.31	60.108
1222.2	45.292
1225.09	35.128
1227.98	14.873
1230.88	36.066
1233.77	44.605
1236.66	27.707
1239.56	35.866
1242.45	36.967
1245.34	27.299
1248.23	7.051
1251.13	51.048
1254.02	26.872
1256.91	3.86
1259.81	7.37
1262.7	20.197
1265.59	0
