Measurement: Raman, 532 nm, unoriented, Raman Data Processed
Mineral: Uranophane-alpha
Rruff sample: R050380
Ideal chemistry: Ca(U^6+^O_2_)_2_(SiO_3_OH)_2_5H_2_O
Locality: Grafton County, New Hampshire, USA
Source: University of Arizona Mineral Museum
Description: Orange massive coating
Measured chemistry: (Ca_0.97_Pb_0.03_)(U_1.00_O_2_)_2_(Si_1.00_O_3_OH)_2_Â·5H_2_O
Raman shift (cm-1)	intensity
148.279	0
151.172	1.94092
154.065	5.26282
156.957	12.9306
159.85	13.6169
162.743	20.9311
165.635	26.3192
168.528	25.4915
171.421	22.9031
174.313	24.1647
177.206	24.4138
180.099	31.3095
182.992	45.4697
185.884	64.6633
188.777	84.784
191.67	115.128
194.562	145.352
197.455	175.497
200.348	206.158
203.24	229.887
206.133	235.725
209.026	219.338
211.918	191.369
214.811	159.707
217.704	127.325
220.597	94.4426
223.489	68.4159
226.382	48.8991
229.275	29.7991
232.167	19.2775
235.06	3.68347
237.953	2.15637
240.845	1.91492
243.738	4.36145
246.631	3.06732
249.524	0.617798
252.416	5.54291
255.309	11.3221
258.202	20.3192
261.094	27.8851
263.987	39.1216
266.88	47.9198
269.772	58.0422
272.665	69.2217
275.558	79.7601
278.451	87.5217
281.343	91.5975
284.236	91.0721
287.129	87.4757
290.021	81.5349
292.914	82.7044
295.807	80.6835
298.7	83.3862
301.592	86.2148
304.485	87.6044
307.378	85.9722
310.27	80.6399
313.163	68.916
316.056	57.6142
318.948	47.8185
321.841	38.0409
324.734	31.2159
327.627	20.6941
330.519	16.5102
333.412	10.9023
336.305	7.52661
339.197	4.28961
342.09	0.737183
344.983	2.19281
347.875	3.05945
350.768	4.02289
353.661	2.43341
356.553	3.42792
359.446	5.43579
362.339	10.6791
365.232	18.4667
368.124	21.5521
371.017	29.6877
373.91	35.2213
376.802	41.0982
379.695	53.7327
382.588	59.9838
385.481	68.1951
388.373	73.8795
391.266	75.3252
394.159	76.2037
397.051	72.5958
399.944	65.7259
402.837	59.337
405.729	49.2856
408.622	41.3146
411.515	30.1162
414.408	22.4224
417.3	17.6884
420.193	11.9793
423.086	7.30902
425.978	5.893
428.871	2.4386
431.764	2.04822
434.656	2.17395
437.549	1.04218
440.442	1.74786
443.334	1.39667
446.227	2.03229
449.12	3.04443
452.013	4.77985
454.905	11.2011
457.798	15.987
460.691	19.2919
463.583	25.6181
466.476	30.8439
469.369	34.3727
472.262	37.4124
475.154	39.6429
478.047	33.9384
480.94	28.8295
483.832	24.8398
486.725	18.4871
489.618	18.5566
492.51	9.82086
495.403	7.65717
498.296	7.42908
501.188	5.75226
504.081	3.10913
506.974	1.24896
509.867	1.64801
512.759	2.89038
515.652	3.16833
518.545	2.51025
521.437	7.46661
524.33	11.6794
527.223	15.0192
530.115	26.9479
533.008	35.3748
535.901	44.0031
538.794	54.7469
541.686	63.932
544.579	63.067
547.472	59.4155
550.364	50.3336
553.257	38.2221
556.15	29.2064
559.043	23.5074
561.935	18.7877
564.828	14.4395
567.721	7.82928
570.613	6.0235
573.506	4.0481
576.399	4.34473
579.291	3.79126
582.184	4.11151
585.077	2.58997
587.97	0.805969
590.862	1.22644
593.755	2.31342
596.648	4.00745
599.54	1.69366
602.433	2.54425
605.326	3.09131
608.218	3.08484
611.111	2.98157
614.004	3.91864
616.896	5.01526
619.789	4.70538
622.682	2.80664
625.575	2.87701
628.467	2.84851
631.36	6.94574
634.253	7.07654
637.145	5.28247
640.038	6.80707
642.931	7.15503
645.823	8.31219
648.716	8.21692
651.609	8.60052
654.502	9.07654
657.394	11.6321
660.287	11.804
663.18	11.6057
666.072	15.1992
668.965	11.3965
671.858	9.50482
674.75	8.14777
677.643	5.09699
680.536	3.46448
683.429	6.48297
686.321	0.474121
689.214	1.40411
692.107	1.02515
694.999	0.469116
697.892	2.87353
700.785	0.138123
703.678	1.71893
706.57	2.5238
709.463	2.41089
712.356	2.44263
715.248	3.56921
718.141	1.08099
721.034	0.979736
723.926	3.24432
726.819	12.9009
729.712	16.9122
732.605	24.1905
735.497	30.0659
738.39	42.2602
741.283	57.2474
744.175	75.1749
747.068	99.4376
749.961	123.895
752.853	159.526
755.746	201.908
758.639	251.68
761.532	314.169
764.424	383.477
767.317	466.783
770.21	561.804
773.102	669.94
775.995	792.526
778.888	931.618
781.78	1078.09
784.673	1207.75
787.566	1332.8
790.458	1416.03
793.351	1448.27
796.244	1390.21
799.137	1259.99
802.029	1090.71
804.922	914.095
807.815	755.437
810.707	620.924
813.6	513.844
816.493	429.768
819.385	361.456
822.278	303.225
825.171	252.888
828.064	204.082
830.956	163.209
833.849	134.357
836.742	109.296
839.634	90.5568
842.527	73.3383
845.42	56.6317
848.312	43.2488
851.205	29.4778
854.098	21.5886
856.991	12.0712
859.883	2.71631
862.776	4.31799
865.669	4.45117
868.561	5.1463
871.454	6.21576
874.347	6.6521
877.24	3.85162
880.132	0.579163
883.025	1.74792
885.918	3.02393
888.81	3.75488
891.703	6.27429
894.596	2.58539
897.488	1.90698
900.381	2.41449
903.274	1.25104
906.167	3.14856
909.059	4.92639
911.952	8.91785
914.845	12.2701
917.737	20.2614
920.63	29.9639
923.523	39.8083
926.415	54.0389
929.308	66.8727
932.201	83.7599
935.093	99.496
937.986	118.132
940.879	134.821
943.772	146.483
946.664	157.915
949.557	173.638
952.45	197.058
955.342	226.755
958.235	260.656
961.128	292.4
964.02	316.286
966.913	316.248
969.806	289.919
972.699	250.192
975.591	209.512
978.484	169.477
981.377	138.747
984.269	112.814
987.162	92.4658
990.055	74.9545
992.947	61.4356
995.84	51.8805
998.733	45.8851
1001.63	39.7452
1004.52	33.8503
1007.41	29.4353
1010.3	25.633
1013.2	26.7037
1016.09	26.0584
1018.98	21.9669
1021.88	18.0902
1024.77	17.3704
1027.66	13.187
1030.55	10.8585
1033.44	8.00671
1036.34	6.48731
1039.23	4.14136
1042.12	1.67377
1045.02	1.45471
1047.91	2.99182
1050.8	1.6734
1053.69	2.27808
1056.59	1.69177
1059.48	1.19952
1062.37	0.104309
1065.27	0.419189
1068.16	1.70233
1071.05	1.6756
1073.94	0.463257
1076.84	1.26831
1079.73	0.481812
1082.62	2.28522
1085.51	3.19025
1088.41	3.87647
1091.3	4.12183
1094.19	6.20453
1097.09	8.75568
1099.98	8.66049
1102.87	8.62958
1105.76	5.24255
1108.66	6.20474
1111.55	3.03485
1114.44	4.57684
1117.33	4.55899
1120.23	4.1951
1123.12	3.9679
1126.01	3.04312
1128.9	4.80701
1131.8	4.6536
1134.69	1.93921
1137.58	3.89825
1140.47	2.86844
1143.37	4.7569
1146.26	2.30179
1149.15	1.75738
1152.05	0.856781
1154.94	0.93512
1157.83	2.91833
1160.72	1.93091
1163.62	1.97565
1166.51	4.83164
1169.4	5.3038
1172.3	2.10425
1175.19	3.43994
1178.08	3.14578
1180.97	2.5929
1183.87	0.625885
1186.76	2.74811
1189.65	3.39166
1192.54	1.3555
1195.44	1.53534
1198.33	1.28955
1201.22	1.65897
1204.12	2.57126
1207.01	2.40021
1209.9	2.03403
1212.79	2.18118
1215.68	2.84662
1218.58	1.42542
1221.47	0.112732
1224.36	1.01443
1227.26	2.93915
1230.15	1.15268
1233.04	1.79163
1235.93	1.38089
1238.83	1.89639
1241.72	0.087463
1244.61	0.923218
1247.51	0.422485
1250.4	2.84247
1253.29	2.03552
1256.18	0.658936
1259.08	2.17151
1261.97	1.15967
1264.86	2.86652
1267.75	2.07169
1270.65	3.16361
1273.54	1.44467
1276.43	1.66339
1279.33	1.95447
1282.22	1.39374
1285.11	1.63586
1288	3.08121
1290.9	3.30389
1293.79	3.06644
1296.68	0.353577
1299.57	2.19421
1302.47	0.037384
