Measurement: Raman, 780 nm, unoriented, Raman Data Processed
Mineral: Uranophane-alpha
Rruff sample: R070584
Ideal chemistry: Ca(U^6+^O_2_)_2_(SiO_3_OH)_2_5H_2_O
Locality: Wolsendorf, Schwandorf, Upper Palatinate, Bavaria, Germany
Source: James Shigley
Description: Sprays and aggregates of pale yellow fibers
Raman shift (cm-1)	intensity
155.066	0
157.959	105.107
160.851	35.2783
163.744	6.93848
166.637	33.4375
169.53	0.204102
172.422	26.0576
175.315	0.245117
178.208	88.8564
181.1	318.453
183.993	324.431
186.886	585.69
189.779	683.386
192.671	907.641
195.564	1128
198.457	1302.3
201.349	1308.73
204.242	1419.77
207.135	1210.39
210.027	1248.15
212.92	1010.76
215.813	926.613
218.706	679.438
221.598	562.657
224.491	399.677
227.384	298.815
230.276	187.761
233.169	125.327
236.062	96.4941
238.954	0.698242
241.847	60.168
244.74	76.0215
247.632	55.6846
250.525	39.668
253.418	8.14746
256.311	15.4482
259.203	52.5801
262.096	33.0049
264.989	62.4307
267.881	151.14
270.774	204.227
273.667	199.882
276.56	244.432
279.452	366.728
282.345	293.53
285.238	357.007
288.13	339.334
291.023	452.052
293.916	420.135
296.808	418.702
299.701	369.029
302.594	436.891
305.486	311.738
308.379	317.822
311.272	204.701
314.165	183.405
317.057	226.352
319.95	182.251
322.843	64.7852
325.735	88.9502
328.628	9.05762
331.521	30.0918
334.413	40.9482
337.306	47.3428
340.199	18.6387
343.092	57.5518
345.984	46.2051
348.877	29.0146
351.77	16.1631
354.662	63.4805
357.555	99.3662
360.448	150.403
363.341	161.098
366.233	246.22
369.126	334.966
372.019	350.757
374.911	500.494
377.804	613.761
380.697	676.111
383.589	732.676
386.482	800.833
389.375	923.857
392.267	947.793
395.16	972.676
398.053	895.867
400.946	841.287
403.838	714.79
406.731	637.882
409.624	617.115
412.516	526.609
415.409	428.024
418.302	397.063
421.195	236.438
424.087	230.314
426.98	130.981
429.873	96.1269
432.765	40.3193
435.658	44.7383
438.551	3.01856
441.443	3.36426
444.336	48.9853
447.229	21.9941
450.122	43.7393
453.014	47.2705
455.907	46.2422
458.8	128.077
461.692	76.6011
464.585	60.1338
467.478	75.0215
470.37	131.164
473.263	179.358
476.156	221.595
479.049	126.004
481.941	155.004
484.834	152.744
487.727	99.8579
490.619	100.879
493.512	50.7319
496.405	8.87402
499.298	32.6943
502.19	61.2778
505.083	92.8818
507.976	33.9258
510.868	2.22461
513.761	29.7754
516.654	46.541
519.546	76.9014
522.439	107.728
525.332	222.667
528.225	291.843
531.117	336.85
534.01	496.985
536.903	532.608
539.795	671.283
542.688	634.186
545.581	658.382
548.473	536.122
551.366	466.256
554.259	332.027
557.152	321.437
560.044	236.939
562.937	185.209
565.83	128.576
568.722	94.6309
571.615	41.3682
574.508	130.64
577.4	24.771
580.293	54.8306
583.186	107.133
586.079	13.8813
588.971	53.8384
591.864	65.9663
594.757	52.1157
597.649	115.419
600.542	70.23
603.435	129.082
606.327	190.854
609.22	182.085
612.113	178.822
615.006	209.047
617.898	219.048
620.791	253.049
623.684	201.531
626.576	225.417
629.469	180.872
632.362	146.182
635.255	160.677
638.147	134.468
641.04	91.0679
643.933	73.9814
646.825	52.6143
649.718	38.397
652.611	2.96631
655.503	34.9941
658.396	55.9858
661.289	56.6977
664.182	58.9609
667.074	0.817383
669.967	33.8169
672.86	5.18213
675.752	45.1357
678.645	114.588
681.538	146.65
684.43	180.943
687.323	189.137
690.216	302.166
693.109	331.665
696.001	408.463
698.894	500.441
701.787	514.722
704.679	565.19
707.572	628.721
710.465	664.459
713.357	695.583
716.25	670.804
719.143	601.149
722.035	565.691
724.928	510.488
727.821	479.533
730.714	495.242
733.606	449.907
736.499	498.519
739.392	487.692
742.284	531.904
745.177	567.581
748.07	630.634
750.962	639.11
753.855	823.1
756.748	1067.91
759.641	1296.79
762.533	1567.55
765.426	1924.84
768.319	2291.08
771.211	2888.31
774.104	3457.99
776.997	4164.15
779.889	4887.3
782.782	5502.65
785.675	5879.81
788.568	6096.78
791.46	6079.57
794.353	5772.8
797.246	5301.62
800.138	4626.09
803.031	3791.98
805.924	3181.37
808.817	2643.53
811.709	2269.65
814.602	1873
817.495	1545.4
820.387	1243.53
823.28	983.808
826.173	762.94
829.065	603.974
831.958	426.193
834.851	267.144
837.744	108.582
840.636	16.7988
843.529	2.10156
846.422	11.4546
849.314	49.978
852.207	81.6748
855.1	77.0972
857.992	104.992
860.885	45.8164
863.778	28.8701
866.67	12.3648
869.563	12.0469
872.456	23.9273
875.349	70.2559
878.241	67.7729
881.134	77.4273
884.027	127.999
886.919	162.811
889.812	120.272
892.705	150.227
895.597	180.695
898.49	141.193
901.383	208.878
904.276	211.58
907.168	238.848
910.061	246.892
912.954	275.085
915.846	213.542
918.739	214.201
921.632	322.396
924.524	250.704
927.417	362.366
930.31	360.46
933.203	442.388
936.095	529.963
938.988	586.298
941.881	736.168
944.773	817.136
947.666	986.696
950.559	1206.83
953.452	1539.05
956.344	1871.35
959.237	2099.33
962.13	2376.68
965.022	2416.96
967.915	2329.22
970.808	2109.07
973.7	1875.04
976.593	1533.82
979.486	1244.71
982.379	989.326
985.271	827.474
988.164	660.933
991.057	579.233
993.949	444.264
996.842	344.696
999.735	327.66
1002.63	201.551
1005.52	181.484
1008.41	144.675
1011.31	137.613
1014.2	78.1499
1017.09	101.805
1019.98	71.3442
1022.88	27.0581
1025.77	0.35791
1028.66	15.3486
1031.55	16.2666
1034.45	40.1128
1037.34	6.32275
1040.23	29.311
1043.12	25.8965
1046.02	18.2314
1048.91	32.1528
1051.8	22.4819
1054.7	19.6997
1057.59	10.8911
1060.48	74.8496
1063.37	0.149414
1066.27	33.2554
1069.16	53.0151
1072.05	42.061
1074.94	55.4331
1077.84	113.904
1080.73	142.881
1083.62	165.998
1086.52	270.379
1089.41	229.196
1092.3	277.877
1095.19	314.612
1098.09	332.573
1100.98	267.591
1103.87	328.858
1106.77	297.128
1109.66	310.246
1112.55	326.107
1115.44	347.155
1118.34	300.592
1121.23	263.179
1124.12	249.79
1127.01	221.731
1129.91	247.982
1132.8	194.021
1135.69	198.078
1138.58	184.441
1141.48	166.201
1144.37	130.854
1147.26	131.005
1150.15	102.499
1153.05	92.5366
1155.94	14.7842
1158.83	84.7148
1161.73	32.5098
1164.62	49.9043
1167.51	38.6025
1170.4	9.29785
1173.3	22.5078
1176.19	8.46875
1179.08	66.2749
1181.97	26.5742
1184.87	1.14404
1187.76	12.6753
1190.65	16.8574
1193.55	7.11328
1196.44	17.0288
1199.33	40.5044
1202.22	15.3799
1205.12	19.8442
1208.01	10.3276
1210.9	38.2422
1213.8	5.56396
1216.69	2.82568
1219.58	51.8765
1222.47	31.4072
1225.37	33.0562
1228.26	30.5737
1231.15	43.4321
1234.04	45.6797
1236.94	34.936
1239.83	55.2544
1242.72	62.4121
1245.61	75.1235
1248.51	28.8276
1251.4	10.6035
1254.29	59.0884
1257.18	66.9297
1260.08	56.1763
1262.97	73.0606
1265.86	50.4712
1268.76	8.4873
