Measurement: Raman, 780 nm, unoriented, Raman Data Processed
Mineral: Uranophane-alpha
Rruff sample: R050380
Ideal chemistry: Ca(U^6+^O_2_)_2_(SiO_3_OH)_2_5H_2_O
Locality: Grafton County, New Hampshire, USA
Source: University of Arizona Mineral Museum
Description: Orange massive coating
Measured chemistry: (Ca_0.97_Pb_0.03_)(U_1.00_O_2_)_2_(Si_1.00_O_3_OH)_2_Â·5H_2_O
Raman shift (cm-1)	intensity
147.967	0
150.859	0.281311
153.752	1.63174
156.645	4.80203
159.538	13.4535
162.43	18.8359
165.323	25.3522
168.216	26.8248
171.108	19.2748
174.001	19.1282
176.894	21.3029
179.786	30.6198
182.679	44.1249
185.572	66.9393
188.465	91.1111
191.357	116.66
194.25	146.475
197.143	181.104
200.035	214.392
202.928	244.634
205.821	259.113
208.714	248.488
211.606	218.973
214.499	176.069
217.392	134.628
220.284	96.1398
223.177	67.0565
226.07	43.8044
228.962	26.5785
231.855	14.613
234.748	4.72812
237.641	1.23683
240.533	3.54778
243.426	2.57115
246.319	0.230606
249.211	1.08318
252.104	2.9424
254.997	4.30826
257.889	9.96962
260.782	15.579
263.675	22.3256
266.567	31.1734
269.46	36.6082
272.353	46.0794
275.246	56.6885
278.138	64.5771
281.031	69.6039
283.924	71.9139
286.816	68.7031
289.709	63.9719
292.602	62.176
295.495	61.0927
298.387	60.3688
301.28	60.8874
304.173	62.6268
307.065	60.7912
309.958	57.5755
312.851	50.3362
315.743	45.2236
318.636	38.1886
321.529	32.9775
324.421	26.4668
327.314	20.8982
330.207	16.9715
333.1	11.0259
335.992	6.34949
338.885	4.06461
341.778	0.817032
344.67	0.692146
347.563	1.86395
350.456	0.054787
353.349	0.644577
356.241	1.20208
359.134	3.09269
362.027	5.93221
364.919	8.09846
367.812	11.9342
370.705	15.4375
373.597	19.2708
376.49	24.1535
379.383	29.5739
382.276	35.3047
385.168	39.5796
388.061	43.8681
390.954	46.0491
393.846	47.6656
396.739	47.7735
399.632	45.5635
402.524	42.081
405.417	35.0865
408.31	31.9954
411.202	28.1838
414.095	23.3248
416.988	13.0587
419.881	9.11721
422.773	6.63876
425.666	4.18346
428.559	2.08935
431.451	0.21228
434.344	0.220032
437.237	0.126831
440.13	0.986679
443.022	0.452957
445.915	1.11153
448.808	2.97539
451.7	4.20278
454.593	6.64738
457.486	9.3709
460.378	11.7457
463.271	13.763
466.164	16.3122
469.057	18.4722
471.949	18.4101
474.842	16.7519
477.735	13.7792
480.627	10.2144
483.52	7.41699
486.413	5.59923
489.305	3.82556
492.198	1.66607
495.091	0.913109
497.983	0.449402
500.876	0.303497
503.769	0.154526
506.662	0.24913
509.554	0.310844
512.447	0.234543
515.34	0.047287
518.232	2.41717
521.125	4.63301
524.018	7.61879
526.91	12.3837
529.803	16.3925
532.696	22.3176
535.589	27.3107
538.481	34.2558
541.374	41.5815
544.267	44.161
547.159	39.1078
550.052	31.0763
552.945	22.3229
555.837	16.0678
558.73	11.8378
561.623	7.82671
564.516	4.09778
567.408	4.48254
570.301	3.52453
573.194	2.69923
576.086	1.13387
578.979	0.368881
581.872	0.434082
584.764	0.224663
587.657	0.12561
590.55	0.939323
593.443	0.848747
596.335	1.66138
599.228	1.81101
602.121	1.37527
605.013	2.4015
607.906	1.85212
610.799	2.22042
613.692	2.34786
616.584	2.86665
619.477	2.40718
622.37	2.12156
625.262	1.95844
628.155	1.76674
631.048	2.70549
633.94	2.20068
636.833	2.76844
639.726	2.7258
642.619	3.03901
645.511	3.79193
648.404	3.64317
651.297	4.19862
654.189	4.19405
657.082	4.18371
659.975	4.41248
662.867	4.05837
665.76	3.63545
668.653	3.53019
671.545	3.68351
674.438	2.30998
677.331	1.95173
680.224	1.48919
683.116	1.22366
686.009	1.02037
688.902	1.5631
691.794	0.524094
694.687	0.686729
697.58	0.315926
700.472	0.87252
703.365	1.00346
706.258	1.22202
709.151	1.07639
712.043	1.70156
714.936	2.01408
717.829	0.900536
720.721	0.11557
723.614	0.45208
726.507	2.28695
729.399	3.80642
732.292	5.82673
735.185	7.6421
738.078	10.172
740.97	14.8441
743.863	20.1901
746.756	26.7988
749.648	36.5421
752.541	48.0404
755.434	60.0274
758.327	76.1469
761.219	96.331
764.112	117.686
767.005	144.775
769.897	179.172
772.79	218.552
775.683	268.239
778.575	330.491
781.468	396.724
784.361	476.134
787.254	552.921
790.146	631.258
793.039	682.972
795.932	697.481
798.824	654.367
801.717	571.241
804.61	467.684
807.502	374.509
810.395	292.342
813.288	224.671
816.181	178.863
819.073	143.684
821.966	118.966
824.859	100.491
827.751	86.336
830.644	73.9139
833.537	64.0764
836.429	56.4484
839.322	47.1675
842.215	42.3613
845.107	33.1557
848	26.4207
850.893	18.3498
853.786	12.6916
856.678	7.36474
859.571	3.07037
862.464	0.030952
865.356	1.71861
868.249	2.88799
871.142	2.88443
874.034	1.76985
876.927	2.22078
879.82	1.25459
882.713	0.416649
885.605	1.60874
888.498	2.07794
891.391	1.3947
894.283	1.47118
897.176	0.817993
900.069	0.104843
902.962	0.490433
905.854	1.10146
908.747	2.43555
911.64	3.05604
914.532	5.07573
917.425	7.78758
920.318	11.4358
923.21	15.3068
926.103	21.4213
928.996	26.2978
931.888	33.9775
934.781	43.5193
937.674	52.7766
940.567	64.8476
943.459	77.5065
946.352	87.4115
949.245	99.7671
952.137	113.243
955.03	128.513
957.923	144.499
960.815	162.818
963.708	171.415
966.601	164.049
969.494	142.981
972.386	114.798
975.279	88.3563
978.172	65.6477
981.064	50.8931
983.957	38.6708
986.85	29.9848
989.742	24.7264
992.635	20.8744
995.528	17.3805
998.42	15.4432
1001.31	12.9513
1004.21	11.5859
1007.1	8.85456
1009.99	9.28548
1012.88	7.84593
1015.78	6.92549
1018.67	6.44559
1021.56	5.73545
1024.45	4.25066
1027.35	3.77973
1030.24	3.26162
1033.13	2.19828
1036.03	1.15854
1038.92	1.18454
1041.81	0.443737
1044.7	0.636002
1047.6	0.186047
1050.49	0.052822
1053.38	0.616131
1056.28	0.005798
1059.17	0.752087
1062.06	0.241566
1064.95	0.232738
1067.85	0.276352
1070.74	0.026188
1073.63	0.367981
1076.52	0.426666
1079.42	0.101028
1082.31	0.176998
1085.2	0.604259
1088.09	1.49659
1090.99	1.13859
1093.88	2.53928
1096.77	2.30968
1099.66	3.01208
1102.56	2.17353
1105.45	1.67864
1108.34	1.02107
1111.24	2.34576
1114.13	1.12332
1117.02	1.42568
1119.91	1.2989
1122.81	1.54311
1125.7	1.58272
1128.59	0.962921
1131.48	1.49532
1134.38	1.44883
1137.27	1.09974
1140.16	1.07361
1143.06	1.50178
1145.95	1.6541
1148.84	0.897491
1151.73	1.25414
1154.63	1.06092
1157.52	0.851879
1160.41	0.93557
1163.3	1.4129
1166.2	1.11539
1169.09	1.03569
1171.98	0.816292
1174.88	0.898354
1177.77	1.24195
1180.66	0.976044
1183.55	0.507732
1186.45	0.854691
1189.34	0.784355
1192.23	0.860073
1195.12	0.748363
1198.02	0.784622
1200.91	1.09532
1203.8	0.421349
1206.69	0.670982
1209.59	0.685024
1212.48	0.022572
1215.37	0.115223
1218.27	0.187752
1221.16	0.369221
1224.05	0.947277
1226.94	0.3046
1229.84	0.247414
1232.73	0.143803
1235.62	0.037632
1238.52	0.467426
1241.41	0.597767
1244.3	0.559174
1247.19	0.626984
1250.09	0.771423
1252.98	1.2267
1255.87	1.00011
1258.76	0.652603
1261.66	0.579212
1264.55	0.04792
1267.44	0.359425
1270.33	0.948978
1273.23	0.235073
1276.12	0.45224
1279.01	1.771
1281.9	0.789467
1284.8	0.079571
