Measurement: Raman, 532 nm, unoriented, Raman Data Processed
Mineral: Uranophane-alpha
Rruff sample: R070584
Ideal chemistry: Ca(U^6+^O_2_)_2_(SiO_3_OH)_2_5H_2_O
Locality: Wolsendorf, Schwandorf, Upper Palatinate, Bavaria, Germany
Source: James Shigley
Description: Sprays and aggregates of pale yellow fibers
Raman shift (cm-1)	intensity
155.915	0
158.808	131.478
161.701	140.451
164.593	47.8535
167.486	275.295
170.379	350.582
173.272	462.832
176.164	334.881
179.057	520.08
181.95	473.723
184.842	594.027
187.735	777.896
190.628	887.631
193.52	1198.66
196.413	1687.89
199.306	1757.43
202.198	2213.69
205.091	2065.3
207.984	1676.46
210.877	1353.24
213.769	1099.04
216.662	589.613
219.555	756.729
222.447	430.273
225.34	140.365
228.233	9.82227
231.125	236.201
234.018	30.875
236.911	32.123
239.804	6.77734
242.696	71.3027
245.589	135.779
248.482	95.4609
251.374	74.4277
254.267	41.0137
257.16	87.9082
260.053	233.272
262.945	319.894
265.838	286.844
268.731	411.096
271.623	622.852
274.516	653.231
277.409	643.875
280.301	885.705
283.194	923.793
286.087	899.916
288.979	809.443
291.872	645.578
294.765	747.381
297.658	618.856
300.55	776.932
303.443	708.824
306.336	586.521
309.228	469.225
312.121	466.875
315.014	354.225
317.906	303.602
320.799	224.295
323.692	68.3242
326.584	173.721
329.477	212.201
332.37	272.428
335.263	159.26
338.155	94.9863
341.048	17.8887
343.941	45.5918
346.833	91.1875
349.726	35.2266
352.619	45
355.512	29.291
358.404	15.9531
361.297	13.9961
364.19	60.4219
367.082	269.775
369.975	423.414
372.868	647.184
375.76	735.031
378.653	807.393
381.546	916.383
384.438	963.648
387.331	1279.63
390.224	1371.29
393.117	1361.55
396.009	1409.31
398.902	1296.68
401.795	981.023
404.687	903.119
407.58	688.723
410.473	517.502
413.365	264.815
416.258	125.481
419.151	163.678
422.044	125.58
424.936	74.541
427.829	156.6
430.722	1.25391
433.614	135.461
436.507	109.301
439.4	89.4648
442.293	34.4141
445.185	20.291
448.078	14.8672
450.971	87.0996
453.863	31.1426
456.756	90.2324
459.649	45.2891
462.541	197.467
465.434	177.018
468.327	232.762
471.219	512.984
474.112	371.166
477.005	370.201
479.898	410.318
482.79	284.543
485.683	353.078
488.576	185.053
491.468	160.443
494.361	241.768
497.254	76.4688
500.147	149.932
503.039	64.4883
505.932	40.4844
508.825	160.008
511.717	143.435
514.61	133.223
517.503	72.5469
520.395	49.0898
523.288	49.6035
526.181	183.924
529.073	276.818
531.966	252.492
534.859	522.859
537.751	661.947
540.644	716.787
543.537	845.666
546.43	767.35
549.322	667.703
552.215	670.307
555.108	528.338
558	304.353
560.893	314.607
563.786	151.857
566.678	154.9
569.571	201.998
572.464	42.1875
575.357	159.875
578.249	91.8418
581.142	178.168
584.035	94.9375
586.927	14.125
589.82	138.402
592.713	157.676
595.606	64.457
598.498	44.6738
601.391	156.307
604.284	140.902
607.176	91.5137
610.069	23.5547
612.962	157.441
615.854	100.635
618.747	156.557
621.64	210.022
624.533	205.135
627.425	191.228
630.318	83.0684
633.211	178.832
636.103	170.631
638.996	191.379
641.889	116.932
644.781	69.2422
647.674	54.3438
650.567	213.738
653.46	101.488
656.352	100.947
659.245	227.404
662.138	122.084
665.03	91.1484
667.923	118.418
670.816	15.5527
673.708	2.67969
676.601	161.818
679.494	45.9355
682.386	68.1992
685.279	47.0273
688.172	34.5488
691.064	36.1641
693.957	39.5879
696.85	23.2031
699.743	22.8965
702.635	3.30078
705.528	63.6738
708.421	151.473
711.313	102.947
714.206	41.7285
717.099	150.269
719.991	229.945
722.884	92.6113
725.777	53.293
728.67	72.4707
731.562	131.797
734.455	338.269
737.348	530.635
740.24	677.725
743.133	757.684
746.026	920.949
748.918	1242.19
751.811	1753.05
754.704	2362.5
757.597	3208.98
760.489	4239.45
763.382	5558.61
766.275	7516.11
769.167	9335.49
772.06	11635.1
774.953	13860.8
777.846	15954.3
780.738	17258.2
783.631	17831.4
786.524	17870.4
789.416	16526.7
792.309	15120
795.202	13366
798.094	11756.2
800.987	10052
803.88	8611.56
806.773	7281.04
809.665	6555.98
812.558	5732.67
815.451	5143.56
818.343	4768.44
821.236	4427.38
824.129	3914.57
827.021	3464.85
829.914	2798.39
832.807	2346.5
835.699	1905.46
838.592	1460.21
841.485	1173.26
844.378	939.242
847.27	613.998
850.163	457.816
853.056	194.727
855.948	121.199
858.841	129.461
861.734	11.707
864.626	119.545
867.519	9.18555
870.412	18.8418
873.304	132.539
876.197	94.2734
879.09	99
881.983	13.0508
884.875	12.332
887.768	133.252
890.661	86.9941
893.553	72.5879
896.446	86.0137
899.339	38.0137
902.231	145.412
905.124	61.9785
908.017	43.8848
910.91	111.523
913.802	246.16
916.695	408.299
919.588	424.703
922.48	632.025
925.373	616.764
928.266	758.674
931.158	976.197
934.051	1124.66
936.944	1241.63
939.837	1306.82
942.729	1406.89
945.622	1664.1
948.515	1746.95
951.407	2031.67
954.3	2435.78
957.193	2839.05
960.085	3143.9
962.978	3379.24
965.871	3740.25
968.764	3740.27
971.656	3682.61
974.549	3350.08
977.442	2827.81
980.334	2396.18
983.227	1952.73
986.12	1660.54
989.013	1332.85
991.905	1049.77
994.798	863.791
997.691	821.057
1000.58	525.68
1003.48	496.084
1006.37	358.461
1009.26	389.728
1012.15	241.768
1015.05	261.84
1017.94	173.58
1020.83	186.287
1023.73	102.338
1026.62	120.889
1029.51	198.371
1032.4	25.0703
1035.3	5.25
1038.19	42.8398
1041.08	43.5781
1043.97	8.23242
1046.87	12.8125
1049.76	49.7617
1052.65	98.1602
1055.55	78.4316
1058.44	120.299
1061.33	15.0039
1064.22	73.1894
1067.12	46.5137
1070.01	126.93
1072.9	186.041
1075.79	176.844
1078.69	188.481
1081.58	172.467
1084.47	186.619
1087.36	201.076
1090.26	145.074
1093.15	182.555
1096.04	187.281
1098.93	211.758
1101.83	191.375
1104.72	29.1113
1107.61	51.2617
1110.51	239.682
1113.4	92.7754
1116.29	96.5703
1119.18	64.209
1122.08	98.7715
1124.97	34.3574
1127.86	41.625
1130.76	272.037
1133.65	146.031
1136.54	47.1113
1139.43	145.93
1142.33	269.066
1145.22	179.379
1148.11	90.3926
1151	247.568
1153.9	219.035
1156.79	247.754
1159.68	54.9629
1162.57	142.373
1165.47	5.43164
1168.36	169.221
1171.25	114.621
1174.14	225.029
1177.04	175.477
1179.93	182.42
1182.82	147.283
1185.72	232.268
1188.61	87.3984
1191.5	224.293
1194.39	53.8672
1197.29	55.707
1200.18	83.1231
1203.07	119.873
1205.96	113.064
1208.86	126.637
1211.75	104.51
1214.64	165.221
1217.54	93.1113
1220.43	201.935
1223.32	233.85
1226.21	183.201
1229.11	8.18164
1232	14.9102
1234.89	35.7129
1237.79	18.4668
1240.68	42.0859
1243.57	88.5898
1246.46	117.607
1249.36	126.217
1252.25	44.584
1255.14	96.7227
1258.03	176.158
1260.93	180.371
1263.82	51.1855
1266.71	131.922
1269.6	105.971
1272.5	148.4
1275.39	260.293
1278.28	91.2461
1281.17	213.594
1284.07	133.717
1286.96	94.9434
1289.85	90.0098
1292.75	50.9375
1295.64	0
