Measurement: Raman, 785 nm, unoriented, Raman Data Processed
Mineral: Uranophane-beta
Rruff sample: R060962
Ideal chemistry: Ca(U^6+^O_2_)_2_(SiO_3_OH)_2_5H_2_O
Locality: Teofilo Otoni, Minas Gerais, Brazil
Source: Michael Scott
Description: Yellow elongated prismatic crystals in aggregates with muscovite on albite
Raman shift (cm-1)	intensity
123.939	0
126.831	303.671
129.724	1079.91
132.617	1985.55
135.509	1375.2
138.402	433.792
141.295	399.293
144.188	1265.01
147.08	2369.94
149.973	3041.02
152.866	2787.29
155.758	2193.3
158.651	1714.12
161.544	1667.43
164.436	1944.53
167.329	2271.32
170.222	2474.43
173.114	2416.87
176.007	2280.46
178.9	1960.77
181.793	1708.96
184.685	1430.24
187.578	1162.94
190.471	953.314
193.363	600.736
196.256	402.201
199.149	191.031
202.042	340.83
204.934	34.9307
207.827	78.2563
210.72	156.441
213.612	195.261
216.505	76.7764
219.398	104.467
222.29	462.283
225.183	808.223
228.076	1138.86
230.969	1349.79
233.861	1472.37
236.754	1419.4
239.647	1078.89
242.539	722.214
245.432	476.972
248.325	381.711
251.217	592.055
254.11	932.91
257.003	1480.17
259.895	2454.12
262.788	3376.86
265.681	3978.95
268.574	4391.35
271.466	4718.57
274.359	4680.27
277.252	4113.16
280.144	2999.7
283.037	1991.25
285.93	1348.72
288.822	1005.68
291.715	1085.8
294.608	1268.15
297.5	1855.4
300.393	2539.64
303.286	3300.07
306.179	3885.8
309.071	3858.29
311.964	3054.91
314.857	1970.27
317.749	1030.16
320.642	485.34
323.535	350.727
326.428	438.675
329.32	546.91
332.213	651.079
335.106	704.674
337.998	1183.62
340.891	726.523
343.784	771.238
346.676	688.424
349.569	583.49
352.462	335.366
355.354	174.296
358.247	6.08496
361.14	142.175
364.033	140.57
366.925	34.5171
369.818	277.208
372.711	702.196
375.603	1180.63
378.496	1874.72
381.389	2442.99
384.281	3171.02
387.174	3726.55
390.067	4049.85
392.96	4065.08
395.852	3882.58
398.745	3385.63
401.638	2778.61
404.53	2329.14
407.423	1964.54
410.316	1535.94
413.209	1243.8
416.101	906.164
418.994	567.826
421.887	288.045
424.779	200.589
427.672	36.2837
430.565	13.7847
433.457	56.4468
436.35	59.1465
439.243	67.085
442.135	15.4746
445.028	29.1919
447.921	111.392
450.813	201.186
453.706	303.802
456.599	441.191
459.492	599.071
462.384	800.871
465.277	1075.17
468.17	1471.29
471.062	1861.85
473.955	2110.14
476.848	2220.07
479.74	1994.85
482.633	1497.69
485.526	1125.36
488.419	886.095
491.311	766.615
494.204	598.095
497.097	536.578
499.989	632.823
502.882	726.127
505.775	985.212
508.668	1128.16
511.56	901.12
514.453	849.692
517.346	935.011
520.238	1024.79
523.131	1262.26
526.024	1611.8
528.916	2104.96
531.809	2825.41
534.702	3671.24
537.595	4343.86
540.487	4461.55
543.38	3874.08
546.273	3101.58
549.165	2285.71
552.058	1719.46
554.951	1297.22
557.843	949.825
560.736	685.445
563.629	483.522
566.521	327.826
569.414	181.53
572.307	158.513
575.2	78.1162
578.092	48.8481
580.985	12.1985
583.878	17.874
586.77	26.5415
589.663	8.50732
592.556	7.71802
595.448	37.102
598.341	10.5657
601.234	17.1836
604.126	27.5217
607.019	77.0198
609.912	107.063
612.805	109.933
615.697	163.566
618.59	188.675
621.483	195.049
624.375	238.44
627.268	277.505
630.161	317.751
633.053	335.542
635.946	362.145
638.839	350.731
641.732	370.939
644.624	328.797
647.517	323.321
650.41	300.053
653.302	226.746
656.195	210.162
659.088	200.76
661.981	168.213
664.873	99.6081
667.766	66.207
670.659	13.3933
673.551	22.8904
676.444	19.96
679.337	2.70679
682.229	26.1235
685.122	89.2144
688.015	68.4929
690.908	91.2407
693.8	55.1977
696.693	76.9273
699.586	8.26465
702.478	8.28565
705.371	24.6282
708.264	12.9568
711.156	1.40649
714.049	70.1873
716.942	98.8025
719.835	143.594
722.727	192.042
725.62	190.752
728.513	306.119
731.405	363.32
734.298	510.262
737.191	689.438
740.083	917.141
742.976	1088.41
745.869	1466.6
748.761	1840.46
751.654	2390.54
754.547	3013.73
757.44	3980.26
760.332	5202.9
763.225	6712.48
766.118	8814.61
769.01	11007.7
771.903	13315.2
774.796	15379.3
777.688	17799.1
780.581	22010.1
783.474	29102
786.366	39674.4
789.259	52970.4
792.152	64752.7
795.045	66773.3
797.937	57093.2
800.83	40986.9
803.723	27113.1
806.615	17633.1
809.508	11709.6
812.401	8011.25
815.293	5683.24
818.186	4000.41
821.079	2908.04
823.972	2515.61
826.864	1694.54
829.757	1370.93
832.65	1108.9
835.542	1037.52
838.435	881.172
841.328	665.474
844.221	550.457
847.113	507.761
850.006	396.871
852.899	309.053
855.791	141.272
858.684	22.0178
861.577	75.4338
864.469	151.082
867.362	231.666
870.255	215.133
873.148	161.498
876.04	70.1042
878.933	170.398
881.826	337.123
884.718	396.999
887.611	339.118
890.504	284.038
893.396	185.006
896.289	158.715
899.182	194.531
902.074	327.781
904.967	542.795
907.86	748.864
910.753	1149.45
913.645	1594.47
916.538	2179.99
919.431	2737.2
922.323	3470.53
925.216	4384.16
928.109	5696.26
931.001	7767.73
933.894	10897.9
936.787	14557
939.68	17933.5
942.572	19863
945.465	19481
948.358	17466.4
951.25	14909.6
954.143	12600.2
957.036	10659.5
959.928	9076.94
962.821	7905.25
965.714	6966.74
968.606	6157.64
971.499	5568.03
974.392	5167.68
977.285	4786.06
980.177	4126.6
983.07	3360.26
985.963	2506.9
988.855	1856.08
991.748	1354.16
994.641	991.682
997.534	782.768
1000.43	610.579
1003.32	447.258
1006.21	333.747
1009.1	220.101
1012	177.034
1014.89	92.9885
1017.78	58.5957
1020.67	1.31665
1023.57	40.333
1026.46	35.8455
1029.35	34.0583
1032.25	36.3394
1035.14	41.6582
1038.03	43.2315
1040.92	40.0105
1043.82	19.0798
1046.71	41.6079
1049.6	6.771
1052.49	27.6895
1055.39	54.6558
1058.28	59.3833
1061.17	65.4831
1064.07	97.2183
1066.96	121.344
1069.85	91.6228
1072.74	131.353
1075.64	123.418
1078.53	139.953
1081.42	186.676
1084.31	131.738
1087.21	184.563
1090.1	558.227
1092.99	229.162
1095.88	256.391
1098.78	239.776
1101.67	266.558
1104.56	251.929
1107.46	250.305
1110.35	244.181
1113.24	231.911
1116.13	267.482
1119.03	254.784
1121.92	200.634
1124.81	188.051
1127.7	157.097
1130.6	162.681
1133.49	151.577
1136.38	120.916
1139.28	64.1115
1142.17	97.2037
1145.06	63.3579
1147.95	65.0912
1150.85	42.2518
1153.74	57.4297
1156.63	23.2637
1159.53	7.43872
1162.42	31.4495
1165.31	38.3835
1168.2	13.0631
1171.1	2.95544
1173.99	7.30322
1176.88	38.6785
1179.77	31.9206
1182.67	19.5681
1185.56	64.9858
1188.45	51.5166
1191.34	48.1277
1194.24	83.0644
1197.13	96.096
1200.02	112.087
1202.91	66.8196
1205.81	100.503
1208.7	140.383
1211.59	136.085
1214.49	182.243
1217.38	228.029
1220.27	264.209
1223.16	246.725
1226.06	222.153
1228.95	157.622
1231.84	75.0852
1234.73	29.3762
1237.63	2.36426
1240.52	23.0193
1243.41	32.5727
1246.31	23.4534
1249.2	73.0796
1252.09	123.805
1254.98	128.546
1257.88	115.002
1260.77	81.7815
1263.66	47.2012
