Measurement: Raman, 780 nm, unoriented, Raman Data Processed
Mineral: Uranophane-beta
Rruff sample: R120075
Ideal chemistry: Ca(U^6+^O_2_)_2_(SiO_3_OH)_2_5H_2_O
Locality: Capoeira pegmatite,  Parelhas, Borborema mineral province, Rio Grande do Norte, Brazil
Source: Donald Doell
Description: Yellow prismatic crystals on albite, associated with a yellow fibrous unknown mineral
Raman shift (cm-1)	intensity
105.103	0
108.478	1.08905
111.852	33.538
115.227	103.926
118.602	123.177
121.977	74.5023
125.352	36.457
128.726	17.9177
132.101	8.58081
135.476	7.9043
138.851	29.2677
142.226	54.1653
145.601	82.1497
148.975	115.983
152.35	123.121
155.725	135.892
159.1	133.136
162.475	138.923
165.85	163.869
169.224	200.47
172.599	246.55
175.974	303.151
179.349	360.991
182.724	400.227
186.098	426.218
189.473	441.138
192.848	495.501
196.223	555.072
199.598	624.194
202.972	699.423
206.347	781.244
209.722	848.185
213.097	895.929
216.472	875.468
219.847	771.322
223.221	627.661
226.596	499.056
229.971	411.713
233.346	324.197
236.721	230.074
240.095	132.376
243.47	50.1343
246.845	1.14453
250.22	22.301
253.595	19.4365
256.969	14.3046
260.344	64.5403
263.719	93.6963
267.094	96.9703
270.469	106.286
273.844	132.402
277.218	149.552
280.593	134.489
283.968	93.6362
287.343	72.2538
290.718	64.514
294.092	67.439
297.467	82.1714
300.842	107.507
304.217	150.905
307.592	187.764
310.967	192.195
314.341	158.21
317.716	123.605
321.091	81.4434
324.466	47.6379
327.841	26.7413
331.216	11.2935
334.59	4.75421
337.965	0.265442
341.34	2.89813
344.715	1.07904
348.09	3.27631
351.464	1.27457
354.839	5.50204
358.214	14.7504
361.589	35.9882
364.964	57.4804
368.339	97.4593
371.713	152.692
375.088	215.375
378.463	278.28
381.838	361.124
385.213	430.071
388.587	484.758
391.962	489.521
395.337	471.731
398.712	418.282
402.087	363.096
405.462	309.155
408.836	257.687
412.211	193.234
415.586	136.157
418.961	90.7118
422.336	60.1768
425.71	34.7299
429.085	25.0662
432.46	10.822
435.835	3.3399
439.21	0.194153
442.584	0.508118
445.959	8.34262
449.334	20.9997
452.709	33.8734
456.084	59.4831
459.459	89.239
462.833	131.358
466.208	180.569
469.583	233.993
472.958	271.978
476.333	261.465
479.707	200.835
483.082	129.47
486.457	72.6674
489.832	37.5876
493.207	13.4206
496.582	1.52728
499.956	7.41071
503.331	4.59366
506.706	0.038544
510.081	11.0084
513.456	21.8377
516.83	48.488
520.205	83.9631
523.58	144.319
526.955	217.11
530.33	314.936
533.705	430.381
537.079	540.414
540.454	563.263
543.829	483.014
547.204	365.761
550.579	272.424
553.953	207.88
557.328	149.335
560.703	106.457
564.078	73.4185
567.453	51.6869
570.827	37.6979
574.202	26.2245
577.577	16.9717
580.952	12.076
584.327	9.94859
587.702	8.22559
591.076	4.76067
594.451	10.5107
597.826	8.26581
601.201	10.9432
604.576	17.8273
607.951	21.6392
611.325	27.8172
614.7	29.717
618.075	39.2308
621.45	41.3392
624.825	47.42
628.199	52.1915
631.574	54.5876
634.949	57.88
638.324	55.3176
641.699	58.9243
645.073	57.4108
648.448	53.6909
651.823	48.1591
655.198	43.3127
658.573	38.6462
661.948	29.8116
665.322	25.1664
668.697	20.602
672.072	14.3972
675.447	9.25847
678.822	3.96034
682.197	0.651703
685.571	1.34314
688.946	4.86069
692.321	5.56058
695.696	8.87204
699.071	11.1196
702.445	8.82767
705.82	9.99347
709.195	5.12244
712.57	6.96713
715.945	3.88873
719.319	0.514099
722.694	11.045
726.069	18.3034
729.444	41.5001
732.819	65.0626
736.193	93.821
739.568	138.089
742.943	189.714
746.318	259.906
749.693	352.231
753.068	487.063
756.442	654.551
759.817	894.211
763.192	1201.47
766.567	1605.82
769.942	2075.44
773.317	2555.64
776.691	3081.41
780.066	3884.26
783.441	5134.12
786.816	6874.62
790.191	8950.5
793.565	10209.4
796.94	9081.23
800.315	6290.27
803.69	3881.49
807.065	2374.05
810.439	1491.22
813.814	972.935
817.189	668.297
820.564	478.13
823.939	362.557
827.314	285.56
830.688	242.95
834.063	221.362
837.438	210.394
840.813	191.91
844.188	180.662
847.562	168.56
850.937	157.978
854.312	123.265
857.687	75.3391
861.062	31.4408
864.437	1.69013
867.811	18.6085
871.186	32.2804
874.561	31.9709
877.936	16.5989
881.311	4.12885
884.686	6.71091
888.06	13.2076
891.435	13.5314
894.81	20.6864
898.185	33.0441
901.56	55.4659
904.934	86.3419
908.309	111.743
911.684	153.446
915.059	207.7
918.434	277.755
921.808	357.422
925.183	452.591
928.558	594.978
931.933	794.653
935.308	1065.09
938.683	1345.67
942.057	1533.29
945.432	1509.21
948.807	1355.34
952.182	1183.41
955.557	1052.22
958.932	967.951
962.306	911.285
965.681	845.924
969.056	769.971
972.431	699.934
975.806	639.111
979.18	558.232
982.555	437.699
985.93	309.199
989.305	221.071
992.68	155.319
996.054	110.885
999.429	80.0174
1002.8	56.0412
1006.18	37.6418
1009.55	26.0832
1012.93	16.8394
1016.3	12.5318
1019.68	4.77447
1023.05	0.298973
1026.43	2.35182
1029.8	1.17329
1033.18	3.66067
1036.55	1.76936
1039.93	2.50233
1043.3	3.99451
1046.68	3.00124
1050.05	1.32441
1053.43	1.85459
1056.8	0.776871
1060.18	4.32264
1063.55	5.02932
1066.93	7.88384
1070.3	8.83289
1073.67	12.1803
1077.05	11.7646
1080.42	12.4774
1083.8	13.6049
1087.17	13.1136
1090.55	14.3332
1093.92	14.7425
1097.3	14.8051
1100.67	14.26
1104.05	13.9005
1107.42	11.3754
1110.8	10.5754
1114.17	11.8684
1117.55	6.90429
1120.92	8.60032
1124.3	8.81902
1127.67	8.31448
1131.05	8.71067
1134.42	8.12021
1137.8	6.86861
1141.17	6.73119
1144.55	4.84576
1147.92	4.68033
1151.3	2.50974
1154.67	3.23115
1158.05	1.95406
1161.42	0.886784
1164.8	3.02376
1168.17	1.1752
1171.55	3.07084
1174.92	3.00177
1178.3	3.44071
1181.67	2.40379
1185.04	1.43602
1188.42	0.664448
1191.79	2.03112
1195.17	1.8852
1198.54	1.81192
1201.92	2.08242
1205.29	1.71421
1208.67	0.649895
1212.04	0.508888
1215.42	0.441891
1218.79	2.59952
1222.17	0.152546
1225.54	0.335506
1228.92	1.32847
1232.29	3.2257
1235.67	1.05535
1239.04	2.04547
1242.42	3.27163
1245.79	1.94921
1249.17	1.94901
1252.54	0.79797
1255.91	1.22121
1259.29	2.1288
1262.66	1.13271
1266.04	1.67556
1269.41	0.966587
1272.79	1.64003
1276.16	0.764362
1279.54	2.4987
1282.91	0.804176
