Measurement: Raman, 785 nm, unoriented, Raman Data Processed
Mineral: Urusovite
Rruff sample: R061114
Ideal chemistry: Cu^2+^AlO(As^5+^O_4_)
Locality: Tolbachik Volcano, Kamchatka Peninsula, Russia
Source: Michael Scott
Description: Cluster of light green crystals embedded in epoxy, co-type material
Raman shift (cm-1)	intensity
119.219	0
122.112	9.99756
125.004	140.908
127.897	319.182
130.79	474.55
133.682	377.482
136.575	155.069
139.468	252.281
142.36	487.613
145.253	713.046
148.146	447.63
151.038	311.691
153.931	205.586
156.824	161.1
159.717	202.268
162.609	235.749
165.502	135.886
168.395	211.252
171.287	253.033
174.18	341.857
177.073	347.985
179.965	194.823
182.858	60.4043
185.751	37.6923
188.644	2.91083
191.536	16.1047
194.429	18.5476
197.322	4.70703
200.214	75.5231
203.107	135.267
206	224.984
208.893	224.946
211.785	136.326
214.678	128.117
217.571	179.164
220.463	250.284
223.356	206.535
226.249	119.393
229.141	48.0842
232.034	24.4446
234.927	4.67358
237.82	5.95337
240.712	6.72571
243.605	6.44531
246.498	8.24304
249.39	10.5918
252.283	27.0045
255.176	1.8717
258.068	38.233
260.961	56.6766
263.854	106.335
266.746	153.654
269.639	215.714
272.532	180.606
275.425	165.72
278.317	117.992
281.21	101.206
284.103	74.3028
286.995	14.8916
289.888	48.7035
292.781	83.3286
295.673	83.3458
298.566	109.944
301.459	90.7648
304.351	37.6396
307.244	73.9811
310.137	66.631
313.03	27.0703
315.922	41.4644
318.815	68.0543
321.708	126.758
324.6	258.609
327.493	368.248
330.386	406.32
333.279	386.985
336.171	298.623
339.064	221.384
341.957	191.819
344.849	185.223
347.742	178.331
350.635	181.757
353.527	144.345
356.42	86.1675
359.313	54.7231
362.205	42.1647
365.098	94.5198
367.991	95.5107
370.884	113.565
373.776	116.167
376.669	107.455
379.562	109.714
382.454	92.1027
385.347	32.1591
388.24	5.92065
391.132	7.37964
394.025	0.640137
396.918	1.76898
399.811	37.4558
402.703	56.4616
405.596	28.1054
408.489	13.4774
411.381	28.874
414.274	3.63434
417.167	1.35144
420.06	6.21075
422.952	7.88769
425.845	4.9917
428.738	13.6017
431.63	0.286743
434.523	5.83545
437.416	16.3576
440.308	28.698
443.201	56.4151
446.094	55.0785
448.986	41.1165
451.879	54.9033
454.772	49.4674
457.665	26.2531
460.557	44.6745
463.45	37.5563
466.343	66.1525
469.235	55.017
472.128	68.3717
475.021	96.9028
477.913	127.814
480.806	163.335
483.699	175.784
486.592	209.783
489.484	290.096
492.377	378.715
495.27	473.537
498.162	538.065
501.055	570.913
503.948	515.965
506.841	419.012
509.733	336.596
512.626	263.001
515.519	220.277
518.411	163.741
521.304	144.88
524.197	104.861
527.089	68.9889
529.982	62.1761
532.875	41.6354
535.768	22.545
538.66	13.3868
541.553	41.4411
544.446	22.1672
547.338	2.6294
550.231	15.433
553.124	13.9192
556.016	12.176
558.909	14.1187
561.802	4.91348
564.694	6.04752
567.587	26.8542
570.48	13.1196
573.373	10.7899
576.265	6.21967
579.158	13.1489
582.051	4.23105
584.943	23.9287
587.836	29.5919
590.729	4.31143
593.621	28.0795
596.514	26.9006
599.407	11.6404
602.299	59.2387
605.192	67.8099
608.085	56.9757
610.978	71.4757
613.87	133.117
616.763	145.684
619.656	175.937
622.548	189.663
625.441	173.391
628.334	167.535
631.226	104.557
634.119	139.342
637.012	111.614
639.905	159.047
642.797	180.308
645.69	239.163
648.583	280.354
651.475	267.305
654.368	196.269
657.261	149.468
660.154	133.836
663.046	76.733
665.939	85.1598
668.832	57.9197
671.724	43.1829
674.617	47.3601
677.51	25.9279
680.402	31.6087
683.295	3.29471
686.188	20.1088
689.081	18.5554
691.973	0.249939
694.866	7.23767
697.759	0.110168
700.651	7.75638
703.544	19.4237
706.437	2.44345
709.329	33.2789
712.222	14.6711
715.115	14.5514
718.008	38.3205
720.9	27.3066
723.793	33.6977
726.686	37.7765
729.578	29.1132
732.471	29.8003
735.364	16.8092
738.256	37.7862
741.149	21.0492
744.042	34.4752
746.934	45.9244
749.827	24.1522
752.72	12.4652
755.612	21.9033
758.505	8.74081
761.398	28.8662
764.291	0.41803
767.183	13.3206
770.076	24.9809
772.969	38.2328
775.861	10.0648
778.754	5.92258
781.647	24.938
784.54	17.8894
787.432	0.05368
790.325	22.7408
793.218	23.6293
796.11	7.87195
799.003	6.07294
801.896	4.21753
804.788	3.20813
807.681	9.46246
810.574	18.2061
813.467	4.37445
816.359	33.7078
819.252	28.8895
822.145	18.1761
825.037	28.5021
827.93	64.3039
830.823	60.1122
833.716	83.5373
836.608	123.634
839.501	164.69
842.394	163.922
845.286	204.192
848.179	199.778
851.072	181.822
853.964	196.156
856.857	208.424
859.75	253.511
862.643	339.487
865.535	476.434
868.428	601.649
871.321	728.224
874.213	868.83
877.106	996.98
879.999	1005.18
882.891	832.54
885.784	595.888
888.677	428.194
891.569	299.941
894.462	232.106
897.355	150.609
900.247	125.234
903.14	154.335
906.033	182.533
908.926	282.245
911.818	344.666
914.711	260.939
917.604	123.88
920.496	69.3556
923.389	14.8242
926.282	8.4118
929.174	8.33069
932.067	5.35986
934.96	2.40417
937.853	1.6543
940.745	0.375549
943.638	9.43854
946.531	23.3063
949.423	50.1896
952.316	59.9097
955.209	124.297
958.101	228.518
960.994	356.791
963.887	375.973
966.78	193.688
969.672	97.5629
972.565	56.0679
975.458	22.3329
978.35	15.0492
981.243	34.3171
984.136	30.3513
987.029	66.1571
989.921	59.1374
992.814	14.4325
995.707	17.1129
998.599	32.8487
1001.49	12.401
1004.38	29.333
1007.28	24.9892
1010.17	16.1001
1013.06	8.8999
1015.96	2.57086
1018.85	13.3234
1021.74	8.84937
1024.63	27.6538
1027.53	25.6241
1030.42	32.3021
1033.31	33.6531
1036.2	36.6006
1039.1	35.3369
1041.99	0.474365
1044.88	27.7315
1047.78	34.7475
1050.67	45.6521
1053.56	34.5921
1056.45	57.1109
1059.35	45.9979
1062.24	38.8977
1065.13	27.5144
1068.02	26.3773
1070.92	52.0766
1073.81	24.9111
1076.7	33.8021
1079.6	21.424
1082.49	29.2325
1085.38	30.6561
1088.27	23.4176
1091.17	21.0685
1094.06	0.870056
1096.95	42.8127
1099.84	14.0622
1102.74	37.2467
1105.63	17.3674
1108.52	19.3518
1111.41	13.3066
1114.31	40.8191
1117.2	31.8033
1120.09	36.5707
1122.98	0.312195
1125.88	9.68347
1128.77	27.4231
1131.66	17.8408
1134.56	4.87622
1137.45	2.62781
1140.34	19.4504
1143.23	11.2181
1146.13	0.845032
1149.02	3.47223
1151.91	12.6293
1154.81	8.89496
1157.7	17.7928
1160.59	23.5314
1163.48	13.5465
1166.38	7.06775
1169.27	18.6524
1172.16	11.7867
1175.05	13.377
1177.95	39.3746
1180.84	28.8106
1183.73	22.2352
1186.62	14.4548
1189.52	2.41742
1192.41	18.6135
1195.3	27.2719
1198.2	13.0788
1201.09	26.322
1203.98	29.4576
1206.87	19.9332
1209.77	9.33917
1212.66	1.34143
1215.55	23.5446
1218.44	0.42218
1221.34	1.47498
1224.23	0
