Measurement: Raman, 532 nm, unoriented, Raman Data Processed
Mineral: Urusovite
Rruff sample: R061114
Ideal chemistry: Cu^2+^AlO(As^5+^O_4_)
Locality: Tolbachik Volcano, Kamchatka Peninsula, Russia
Source: Michael Scott
Description: Cluster of light green crystals embedded in epoxy, co-type material
Raman shift (cm-1)	intensity
121.565	0
124.94	2347.04
128.314	2297.07
131.689	2544.83
135.064	2404.69
138.439	1156.49
141.814	1804.16
145.189	2530.25
148.563	1056.52
151.938	155.146
155.313	19.655
158.688	41.5471
162.063	191.484
165.437	553.733
168.812	1601.51
172.187	2981.81
175.562	4308.98
178.937	3887.34
182.311	1351.32
185.686	526.045
189.061	276.685
192.436	179.402
195.811	185.117
199.185	462.609
202.56	682.336
205.935	989.933
209.31	1312.27
212.685	750.216
216.06	526.789
219.434	658.704
222.809	849.436
226.184	340.014
229.559	92.7285
232.934	23.8164
236.309	8.50879
239.683	4.43164
243.058	35.8486
246.433	65.1953
249.808	44.751
253.183	17.0752
256.557	44.294
259.932	207.223
263.307	596.797
266.682	1150.59
270.057	1790.76
273.431	2374.21
276.806	1835.3
280.181	1426.1
283.556	1241.03
286.931	614.175
290.305	436.496
293.68	474.17
297.055	657.446
300.43	910.324
303.805	926.062
307.18	1342.85
310.554	1824.38
313.929	1183.47
317.304	1766.54
320.679	3250.78
324.054	5274.3
327.428	7345.06
330.803	8870.32
334.178	7780.04
337.553	4888.76
340.928	2907.8
344.303	2250.38
347.677	2175.32
351.052	2292.41
354.427	2020.13
357.802	1354.06
361.177	1099.86
364.551	1312.51
367.926	1751.2
371.301	2169.42
374.676	2010.11
378.051	1587.1
381.425	1483.3
384.8	504.713
388.175	88.3203
391.55	84.3789
394.925	76.1211
398.3	274.695
401.674	326.468
405.049	365.346
408.424	154.948
411.799	107.754
415.174	64.6523
418.548	101.901
421.923	74.1231
425.298	43.7148
428.673	115.492
432.048	219.781
435.423	478.2
438.797	906.069
442.172	1353.33
445.547	1789.17
448.922	1946.96
452.297	1595.69
455.671	919.833
459.046	458.252
462.421	411.837
465.796	358.976
469.171	435.563
472.546	532.041
475.92	619.178
479.295	834.995
482.67	936.739
486.045	1295.1
489.42	1858.63
492.794	2701.31
496.169	3790.31
499.544	4631.79
502.919	5102.85
506.294	4584.05
509.668	3409.6
513.043	2386.33
516.418	1763.53
519.793	1332.81
523.168	1124.27
526.543	783.992
529.917	396.114
533.292	170.049
536.667	67.8887
540.042	58.5664
543.417	63.1172
546.791	84.2188
550.166	25.5107
553.541	21.8965
556.916	5.08887
560.291	1.92676
563.665	15.7715
567.04	7.35938
570.415	68.3672
573.79	45.5361
577.165	108.857
580.54	132.938
583.914	168.336
587.289	196.565
590.664	254.19
594.039	349.62
597.414	373.816
600.788	423.766
604.163	511.785
607.538	829.622
610.913	1088.9
614.288	1401.41
617.663	1917.01
621.037	2337.9
624.412	2705.69
627.787	2489.18
631.162	1766.89
634.537	1162.15
637.911	966.714
641.286	1384.83
644.661	1873.27
648.036	2438.91
651.411	2655.68
654.785	2394.84
658.16	1534.03
661.535	1130.98
664.91	877.517
668.285	799.452
671.659	648.801
675.034	389.312
678.409	234.707
681.784	97.3359
685.159	80.5723
688.534	27.7461
691.908	8.87793
695.283	93.835
698.658	14.5059
702.033	13.1455
705.408	28.9199
708.783	15.8184
712.157	108.666
715.532	47.3008
718.907	42.6758
722.282	37.2246
725.657	22.7588
729.031	29.7051
732.406	90.6533
735.781	199.553
739.156	247.388
742.531	208.904
745.905	149.976
749.28	198.238
752.655	207.055
756.03	295.998
759.405	155.375
762.779	163.963
766.154	138.106
769.529	243.586
772.904	144.193
776.279	136.446
779.654	82.1826
783.028	58.1816
786.403	32.5693
789.778	45.2529
793.153	4.92481
796.528	60.5254
799.903	46.4551
803.277	40.2627
806.652	66.7256
810.027	41.75
813.402	20.8652
816.777	118.938
820.151	456.981
823.526	739.961
826.901	1073.12
830.276	1526.4
833.651	2342.48
837.025	3140.24
840.4	3887.28
843.775	4320.8
847.15	4203.4
850.525	3595.99
853.899	3101.58
857.274	3220.94
860.649	3852.28
864.024	5117.9
867.399	6750.51
870.774	8727.15
874.148	10560.1
877.523	11838.5
880.898	11902.9
884.273	10142.5
887.648	7055.36
891.023	4334.91
894.397	2713.42
897.772	1874.61
901.147	1559.87
904.522	1597.07
907.896	2271.57
911.271	3356.58
914.646	3960.81
918.021	2353.64
921.396	651.417
924.771	187.288
928.145	128.745
931.52	48.082
934.895	136.284
938.27	24.832
941.645	131.562
945.019	457.875
948.394	850.057
951.769	1308.67
955.144	2284.44
958.519	3828.63
961.894	5970.68
965.268	7002.52
968.643	3252.7
972.018	1185.05
975.393	451.198
978.768	204.868
982.143	281.682
985.517	245.144
988.892	364.381
992.267	359.409
995.642	21.7568
999.016	8.9873
1002.39	81.4209
1005.77	34.333
1009.14	10.2764
1012.52	11.7949
1015.89	28.7432
1019.26	79.1787
1022.64	89.8369
1026.02	188.167
1029.39	265.296
1032.77	281.728
1036.14	271.603
1039.51	258.998
1042.89	291.45
1046.26	141.747
1049.64	178.772
1053.01	158.742
1056.39	138.504
1059.76	133.718
1063.14	118.531
1066.51	101.284
1069.89	26.9238
1073.26	176.115
1076.64	179.217
1080.01	115.451
1083.39	116.019
1086.76	27.4443
1090.14	97.5478
1093.51	30.1123
1096.89	70.917
1100.26	40.957
1103.64	44.1055
1107.01	123.918
1110.38	36.9102
1113.76	93.1543
1117.13	41.9746
1120.51	216.983
1123.88	154.34
1127.26	78.9893
1130.63	2.93457
1134.01	55.8701
1137.38	65.0859
1140.76	131.386
1144.13	104.936
1147.51	263.745
1150.88	253.962
1154.26	216.805
1157.63	194.594
1161.01	184.577
1164.38	169.855
1167.76	195.855
1171.13	28.5498
1174.51	62.5342
1177.88	23.0527
1181.26	83.7266
1184.63	22.3203
1188.01	58.8779
1191.38	70.668
1194.76	13.3467
1198.13	56.2978
1201.51	119.52
1204.88	62.4941
1208.26	44.7393
1211.63	121.247
1215.01	117.686
1218.38	170.842
1221.75	117.6
1225.13	139.874
1228.5	89.2588
1231.88	81.4961
1235.25	2.30664
1238.63	123.306
1242	93.8926
1245.38	0.966797
1248.75	23.6846
1252.13	21.5283
1255.5	100.207
1258.88	29.46
1262.25	65.1914
1265.63	79.1504
1269	145.491
1272.38	74.2109
1275.75	162.86
1279.13	167.442
1282.5	21.6895
1285.88	34.417
