Measurement: Raman, 532 nm, unoriented, Raman Data Processed
Mineral: Ussingite
Rruff sample: R140806
Ideal chemistry: Na_2_AlSi_3_O_8_(OH)
Locality: Poudrette quarry, Mont Saint-Hilaire, Rouville RCM, Montérégie, Québec, Canada
Source: Donald Doell
Description: Associated with lovozerite (R120159).
Raman shift (cm-1)	intensity
112.925	0
116.3	31.9232
119.674	28.612
123.049	1.5418
126.424	7.30787
129.799	43.9688
133.174	67.7007
136.548	41.6613
139.923	48.1869
143.298	79.8813
146.673	107.805
150.048	141.295
153.423	237.825
156.797	361.06
160.172	235.779
163.547	93.7819
166.922	59.0506
170.297	66.2485
173.672	63.0552
177.046	20.1952
180.421	7.38103
183.796	7.80968
187.171	11.8229
190.546	20.6716
193.92	29.8453
197.295	35.7672
200.67	26.7531
204.045	13.4274
207.42	5.72792
210.794	1.2511
214.169	0.217903
217.544	0.732216
220.919	2.09792
224.294	1.11053
227.669	2.82941
231.043	1.0697
234.418	3.78927
237.793	8.26445
241.168	11.7967
244.543	22.9203
247.917	44.184
251.292	71.4561
254.667	108.382
258.042	159.434
261.417	220.035
264.792	231.705
268.166	163.074
271.541	89.865
274.916	48.3181
278.291	29.0359
281.666	20.6515
285.041	19.3494
288.415	22.9084
291.79	31.8182
295.165	40.7396
298.54	53.8072
301.915	60.986
305.289	46.6629
308.664	16.1117
312.039	0.025467
315.414	3.42708
318.789	1.38088
322.163	9.90144
325.538	26.6756
328.913	53.5397
332.288	63.2688
335.663	30.4458
339.038	7.464
342.412	4.37196
345.787	12.3412
349.162	28.7218
352.537	47.254
355.912	70.841
359.286	91.09
362.661	101.799
366.036	96.7032
369.411	88.5204
372.786	64.6618
376.161	24.8558
379.535	8.12198
382.91	5.7941
386.285	11.2762
389.66	25.1415
393.035	40.3554
396.409	34.9903
399.784	10.3975
403.159	5.05712
406.534	5.58611
409.909	0.595848
413.284	2.83361
416.658	13.8745
420.033	35.9118
423.408	55.3725
426.783	50.0464
430.158	30.3473
433.532	18.3057
436.907	13.2018
440.282	10.9355
443.657	11.344
447.032	19.4335
450.406	36.6429
453.781	65.0487
457.156	110.224
460.531	173.131
463.906	252.918
467.281	352.64
470.655	462.287
474.03	517.431
477.405	471.697
480.78	405.479
484.155	409.354
487.529	428.777
490.904	315.223
494.279	161.673
497.654	85.3115
501.029	49.2521
504.404	28.4741
507.778	18.1301
511.153	13.2439
514.528	11.8895
517.903	13.0413
521.278	15.9243
524.653	16.7625
528.027	12.774
531.402	4.23634
534.777	2.15055
538.152	3.2517
541.527	0.397125
544.901	5.90271
548.276	17.72
551.651	33.9719
555.026	54.7691
558.401	79.1038
561.775	99.9073
565.15	102.656
568.525	79.3226
571.9	50.0437
575.275	29.1248
578.649	15.9458
582.024	9.93674
585.399	5.25097
588.774	3.57913
592.149	1.80262
595.524	0.465576
598.898	0.517162
602.273	0.371021
605.648	0.440048
609.023	0.300182
612.398	0.489349
615.773	0.326317
619.147	0.814842
622.522	1.04935
625.897	2.08011
629.272	2.54913
632.647	3.4093
636.021	4.07216
639.396	6.245
642.771	8.94781
646.146	13.5584
649.521	20.6506
652.895	28.9193
656.27	37.4865
659.645	41.5249
663.02	38.9702
666.395	40.8193
669.77	46.7682
673.144	42.1928
676.519	19.3596
679.894	7.77417
683.269	3.48476
686.644	1.39406
690.019	0.598873
693.393	0.253162
696.768	0.084805
700.143	0.173214
703.518	0.270046
706.893	1.4818
710.267	3.83146
713.642	7.04816
717.017	11.8146
720.392	17.7778
723.767	18.5766
727.141	14.3934
730.516	13.0205
733.891	17.8842
737.266	22.0694
740.641	31.2663
744.016	45.3312
747.39	64.9168
750.765	83.9608
754.14	81.9385
757.515	50.9293
760.89	23.5977
764.264	11.5983
767.639	5.01477
771.014	2.33075
774.389	1.52005
777.764	0.71978
781.139	0.612339
784.513	0.138741
787.888	0.614277
791.263	1.44778
794.638	4.19696
798.013	10.0178
801.388	14.7714
804.762	20.7047
808.137	18.5255
811.512	10.7325
814.887	7.70834
818.261	8.87896
821.636	11.2651
825.011	12.0232
828.386	9.50802
831.761	6.01178
835.136	3.34547
838.51	1.60138
841.885	0.269669
845.26	2.07853
848.635	0.093925
852.01	0.512753
855.385	0.795212
858.759	0.372555
862.134	0.428997
865.509	0.632481
868.884	0.272404
872.259	0.867405
875.633	0.389088
879.008	2.87421
882.383	0.706459
885.758	0.503666
889.133	2.18282
892.508	2.56568
895.882	4.25884
899.257	6.19601
902.632	7.60267
906.007	8.93179
909.382	9.58136
912.756	11.1678
916.131	14.4073
919.506	22.1859
922.881	41.1672
926.256	72.1623
929.63	119.339
933.005	182.384
936.38	205.226
939.755	129.033
943.13	72.3589
946.505	54.8253
949.879	50.5681
953.254	52.9833
956.629	55.2248
960.004	55.9657
963.379	55.541
966.754	53.8264
970.128	50.2663
973.503	47.6547
976.878	43.207
980.253	40.7361
983.628	37.2521
987.002	32.3012
990.377	23.6889
993.752	13.9363
997.127	6.89469
1000.5	2.47036
1003.88	1.16287
1007.25	3.09443
1010.63	1.3483
1014	1.96681
1017.38	7.51753
1020.75	15.5895
1024.12	12.9118
1027.5	4.03708
1030.88	1.2335
1034.25	5.04945
1037.62	16.0929
1041	32.0197
1044.37	46.458
1047.75	46.5475
1051.12	42.42
1054.5	51.5373
1057.87	58.717
1061.25	40.9059
1064.62	20.1942
1068	9.85699
1071.37	7.39908
1074.75	12.4129
1078.12	21.5131
1081.5	36.0379
1084.87	56.3491
1088.25	82.5089
1091.62	106.99
1095	122.567
1098.37	108.434
1101.75	78.4476
1105.12	58.7341
1108.5	49.0018
1111.87	39.5752
1115.24	28.1178
1118.62	18.2665
1121.99	11.231
1125.37	6.38158
1128.74	4.19445
1132.12	2.08715
1135.49	0.889282
1138.87	0.077507
1142.24	0.157669
1145.62	0.37067
1148.99	0.384079
1152.37	0.210957
1155.74	0.458183
1159.12	0.006035
1162.49	0.195179
1165.87	0.314491
1169.24	0.446453
1172.62	0.716526
1175.99	1.32296
1179.37	1.37004
1182.74	1.75422
1186.12	1.73579
1189.49	2.3053
1192.87	2.32844
1196.24	2.35083
1199.62	2.31438
1202.99	2.41425
1206.37	2.13819
1209.74	2.32655
1213.12	1.73749
1216.49	1.75525
1219.87	1.73672
1223.24	1.682
1226.61	1.61544
1229.99	1.35766
1233.36	1.31023
1236.74	1.66587
1240.11	1.62364
1243.49	1.70444
1246.86	2.60429
1250.24	5.87154
1253.61	3.60172
1256.99	4.11274
1260.36	5.74797
1263.74	7.80483
1267.11	10.1668
1270.49	11.0858
1273.86	11.1616
1277.24	8.78766
1280.61	6.4083
1283.99	4.19544
1287.36	2.22665
1290.74	0.853699
1294.11	0.339596
1297.49	0.518612
1300.86	0.003822
