Measurement: Raman, 532 nm, unoriented, Raman Data Processed
Mineral: Ussingite
Rruff sample: R070562
Ideal chemistry: Na_2_AlSi_3_O_8_(OH)
Locality: Tareq Slope, Ilimaussaq, Narsaq, Kitaa Province, Greenland
Source: James Shigley
Description: Pale purple massive
Measured chemistry: Na_2.00_Al_1.00_Si_3.00_O_8_((OH)_0.91_F_0.09_)_Î£=1_; OH by difference
Raman shift (cm-1)	intensity
135.638	0
138.53	101.165
141.423	1774.69
144.316	5789.88
147.208	5954.99
150.101	2354.27
152.994	2651.39
155.887	4364.6
158.779	5947.32
161.672	3402.11
164.565	2100.18
167.457	1686.91
170.35	1728.04
173.243	2555.04
176.135	1506.54
179.028	291.656
181.921	59.7727
184.814	235.154
187.706	136.79
190.599	135.673
193.492	616.597
196.384	1197.03
199.277	1389.29
202.17	1102.59
205.062	640.622
207.955	376.391
210.848	134.166
213.74	107.093
216.633	191.81
219.526	391.676
222.419	388.239
225.311	219.26
228.204	171.344
231.097	285.984
233.989	577.355
236.882	947.324
239.775	835.616
242.667	505.309
245.56	585.992
248.453	1142.87
251.346	2040.91
254.238	3273.16
257.131	4623.47
260.024	6432.68
262.916	8307.24
265.809	8744
268.702	6508.04
271.594	4050.45
274.487	2508.56
277.38	1923.22
280.273	1798.99
283.165	1959.35
286.058	2251.46
288.951	2709.74
291.844	3336.68
294.736	3789.53
297.629	3916.38
300.522	3708.45
303.414	3135.92
306.307	2165.43
309.2	1012.37
312.092	307.297
314.985	4.86987
317.878	139.151
320.771	85.57
323.663	65.8667
326.556	248.296
329.449	485.062
332.341	795.303
335.234	583.405
338.127	161.006
341.019	32.486
343.912	49.6707
346.805	157.399
349.697	466.519
352.59	759.16
355.483	1159.3
358.376	1554.28
361.268	1883.35
364.161	1958.28
367.054	1647.23
369.946	1316.55
372.839	931.631
375.732	325.117
378.625	59.9257
381.517	152.773
384.41	8.51562
387.303	145.532
390.195	336.615
393.088	631.726
395.981	866.57
398.873	590.894
401.766	109.995
404.659	70.386
407.551	6.59912
410.444	418.677
413.337	622.323
416.23	1036.7
419.122	1776.9
422.015	2845.69
424.908	3689.96
427.8	2972.48
430.693	2011.08
433.586	1257.15
436.478	912.32
439.371	877.347
442.264	837.415
445.157	805.327
448.049	924.128
450.942	1283.48
453.835	1863.9
456.727	2745.57
459.62	4124.06
462.513	5875.13
465.406	8124.34
468.298	10829.3
471.191	13866.3
474.084	16160.1
476.976	16451.5
479.869	14888.9
482.762	13866
485.654	15242.5
488.547	17728.5
491.44	15442.8
494.333	8914.66
497.225	4740.03
500.118	2766.83
503.011	1841.98
505.903	1132.07
508.796	709.579
511.689	487.296
514.582	315.979
517.474	212.126
520.367	141.115
523.26	102.909
526.152	47.6962
529.045	34.746
531.938	19.8439
534.83	99.1448
537.723	113.531
540.616	31.5381
543.509	8.40601
546.401	175.487
549.294	448.665
552.187	743.89
555.079	1149.13
557.972	1589.25
560.865	2114.13
563.757	2601.36
566.65	2753.41
569.543	2305.01
572.436	1620.61
575.328	1026.89
578.221	647.238
581.114	375.978
584.006	281.507
586.899	187.859
589.792	146.612
592.684	70.8923
595.577	56.725
598.47	21.9215
601.362	9.27838
604.255	2.62085
607.148	17.95
610.041	5.92041
612.933	38.8285
615.826	20.3844
618.719	40.1555
621.611	31.301
624.504	42.2176
627.397	41.1324
630.289	60.7988
633.182	112.329
636.075	94.5792
638.968	130.236
641.86	189.588
644.753	272.43
647.646	360.99
650.538	536.101
653.431	757.414
656.324	1038.35
659.217	1236.04
662.109	1282.84
665.002	1059.26
667.895	959.772
670.787	1101.96
673.68	1068.12
676.573	665.828
679.466	308.922
682.358	136.377
685.251	39.9893
688.144	38.1276
691.036	13.1997
693.929	0.530151
696.822	25.2944
699.714	11.9945
702.607	3.41638
705.5	25.9429
708.393	44.9669
711.285	101.482
714.178	157.205
717.071	296.725
719.963	373.984
722.856	467.853
725.749	425.879
728.641	337.581
731.534	318.73
734.427	422.121
737.319	547.662
740.212	814.489
743.105	1077.66
745.998	1573.02
748.89	2187.87
751.783	2695.61
754.676	2963.31
757.568	2364.04
760.461	1350.68
763.354	717.256
766.246	391.082
769.139	196.321
772.032	124.924
774.925	51.0491
777.817	43.1899
780.71	39.8758
783.603	11.1386
786.495	40.3142
789.388	46.6724
792.281	92.97
795.173	250.079
798.066	397.787
800.959	579.125
803.852	817.522
806.744	1023.23
809.637	970.863
812.53	594.09
815.422	298.272
818.315	174.212
821.208	163.75
824.101	179.637
826.993	181.959
829.886	101.904
832.779	82.3073
835.671	40.1023
838.564	4.92432
841.457	18.6465
844.349	23.1188
847.242	36.2222
850.135	13.9055
853.028	35.773
855.92	10.5699
858.813	8.40552
861.706	22.5057
864.598	2.46222
867.491	14.9118
870.384	40.8658
873.276	78.3903
876.169	105.946
879.062	102.648
881.955	121.511
884.847	131.973
887.74	180.573
890.633	249.213
893.525	343.825
896.418	414.608
899.311	481.856
902.203	627.899
905.096	643.831
907.989	688.587
910.881	748.285
913.774	814.069
916.667	878.333
919.56	1020.8
922.452	1316.61
925.345	1926.63
928.238	2865.1
931.13	4244.61
934.023	5820.16
936.916	6926.79
939.808	5523.13
942.701	3139.57
945.594	2015.58
948.487	1619.25
951.379	1439.71
954.272	1390.94
957.165	1427.64
960.057	1445.21
962.95	1436.97
965.843	1418.36
968.736	1321.83
971.628	1294.95
974.521	1234.17
977.414	1240.45
980.306	1230.11
983.199	1229.36
986.092	1300.57
988.985	1283.49
991.877	992.843
994.77	598.565
997.663	324.926
1000.55	241.425
1003.45	111.407
1006.34	74.7291
1009.23	11.1659
1012.13	4.74243
1015.02	49.6299
1017.91	22.3173
1020.8	23.4594
1023.7	20.2902
1026.59	39.4623
1029.48	11.8892
1032.38	18.4091
1035.27	132.033
1038.16	268.428
1041.05	461.886
1043.95	693.104
1046.84	944.656
1049.73	1226.26
1052.62	1638.09
1055.52	2154.94
1058.41	2662.23
1061.3	2432.33
1064.19	1559.43
1067.09	948.022
1069.98	646.196
1072.87	528.374
1075.77	517.545
1078.66	569.269
1081.55	761.039
1084.44	922.521
1087.34	1154.08
1090.23	1365.71
1093.12	1446.84
1096.01	1415.13
1098.91	1290.59
1101.8	1243.42
1104.69	1245.55
1107.59	1253.41
1110.48	1222.11
1113.37	1106.06
1116.26	866.382
1119.16	587.442
1122.05	403.684
1124.94	263.652
1127.83	194.449
1130.73	124.261
1133.62	89.3873
1136.51	65.5552
1139.4	43.1734
1142.3	16.9511
1145.19	10.0997
1148.08	14.6379
1150.98	19.4852
1153.87	6.56671
1156.76	11.9211
1159.65	0.166443
1162.55	14.6691
1165.44	12.1135
1168.33	0.72168
1171.22	25.3748
1174.12	7.19305
1177.01	17.1685
1179.9	28.0538
1182.8	21.2711
1185.69	38.0663
1188.58	35.4656
1191.47	47.3383
1194.37	34.7717
1197.26	49.0275
1200.15	56.5732
1203.04	50.6114
1205.94	51.1176
1208.83	20.6383
1211.72	56.0232
1214.62	28.4586
1217.51	30.3055
1220.4	30.5811
1223.29	54.5755
1226.19	53.4913
1229.08	41.0412
1231.97	43.3895
1234.86	115.725
1237.76	37.0972
1240.65	43.3109
1243.54	4.92542
1246.43	18.9662
1249.33	32.1633
1252.22	10.9043
1255.11	17.8543
