Measurement: Raman, 780 nm, unoriented, Raman Data Processed
Mineral: Ussingite
Rruff sample: R140806
Ideal chemistry: Na_2_AlSi_3_O_8_(OH)
Locality: Poudrette quarry, Mont Saint-Hilaire, Rouville RCM, Montérégie, Québec, Canada
Source: Donald Doell
Description: Associated with lovozerite (R120159).
Raman shift (cm-1)	intensity
136.879	0
139.772	12.3848
142.664	69.9647
145.557	147.733
148.45	240.04
151.342	451.25
154.235	785.037
157.128	910.739
160.02	505.608
162.913	249.276
165.806	162.824
168.698	143.814
171.591	141.161
174.484	61.153
177.377	5.03783
180.269	8.14387
183.162	8.35648
186.055	5.58829
188.947	1.68413
191.84	11.2368
194.733	21.0294
197.625	26.0019
200.518	18.3194
203.411	9.49533
206.304	5.98521
209.196	5.71004
212.089	6.08115
214.982	11.7611
217.874	19.11
220.767	16.7161
223.66	12.4268
226.553	9.06094
229.445	12.7965
232.338	21.4634
235.231	29.9388
238.123	33.7374
241.016	41.6429
243.909	63.4154
246.801	100.198
249.694	148.104
252.587	210.457
255.48	302.568
258.372	420.497
261.265	534.216
264.158	546.943
267.05	405.828
269.943	244.547
272.836	139.245
275.728	79.3416
278.621	47.3704
281.514	35.233
284.406	35.6971
287.299	42.1517
290.192	55.4444
293.085	77.242
295.977	108.798
298.87	151.183
301.763	178.313
304.655	144.375
307.548	69.2689
310.441	18.7626
313.334	2.00934
316.226	6.35579
319.119	4.88373
322.012	6.34476
324.904	24.2709
327.797	58.4378
330.69	85.7526
333.582	65.4622
336.475	35.4189
339.368	32.3656
342.26	46.784
345.153	74.7854
348.046	110.935
350.938	158.205
353.831	216.301
356.724	274.337
359.617	315.868
362.509	317.236
365.402	269.994
368.295	218.149
371.187	159.49
374.08	88.643
376.973	35.651
379.865	7.19861
382.758	5.42693
385.651	7.26125
388.544	3.63922
391.436	10.5328
394.329	21.1385
397.222	6.06757
400.114	1.46619
403.007	2.57654
405.9	17.9735
408.793	37.6037
411.685	39.7548
414.578	45.8197
417.471	78.1825
420.363	130.641
423.256	172.022
426.149	163.184
429.041	116.377
431.934	72.4388
434.827	50.2189
437.719	42.5134
440.612	43.7316
443.505	49.2332
446.398	68.7611
449.29	94.3854
452.183	137.593
455.076	201.053
457.968	284.748
460.861	392.645
463.754	527.042
466.647	697.196
469.539	885.505
472.432	1014.63
475.325	981.916
478.217	846.131
481.11	769.466
484.003	815.881
486.895	871.493
489.788	686.24
492.681	394.195
495.573	221.403
498.466	132.638
501.359	81.9857
504.252	50.4629
507.144	28.8757
510.037	17.0584
512.93	9.35956
515.822	5.81459
518.715	3.09438
521.608	2.72488
524.5	2.41274
527.393	0.200272
530.286	2.54538
533.178	5.1891
536.071	4.68156
538.964	2.74007
541.857	12.7111
544.749	28.6397
547.642	51.2324
550.535	82.1618
553.427	117.497
556.32	162.344
559.213	211.119
562.106	246.922
564.998	239.788
567.891	189.681
570.784	127.042
573.676	80.3027
576.569	50.4915
579.462	31.2689
582.354	19.5943
585.247	12.203
588.14	8.17995
591.033	2.95165
593.925	0.839851
596.818	0.090088
599.711	0.161842
602.603	0.67934
605.496	0.804146
608.389	3.68473
611.281	0.010063
614.174	0.842243
617.067	0.826546
619.96	0.956768
622.852	2.31447
625.745	3.17376
628.638	4.02574
631.53	5.18508
634.423	7.00337
637.316	8.81262
640.208	13.54
643.101	18.1637
645.994	25.7971
648.886	36.8569
651.779	49.5703
654.672	66.4909
657.564	76.4959
660.457	75.9378
663.35	70.0919
666.243	76.1233
669.135	92.4781
672.028	89.5743
674.921	51.2868
677.813	25.2116
680.706	11.963
683.599	7.02682
686.491	2.78738
689.384	0.268948
692.277	0.127087
695.17	0.366348
698.062	0.345604
700.955	1.02856
703.848	0.06683
706.74	0.771996
709.633	2.53252
712.526	5.26333
715.418	9.28115
718.311	14.7952
721.204	17.953
724.097	16.0437
726.989	13.7851
729.882	14.7913
732.775	24.2819
735.667	25.1174
738.56	34.9023
741.453	47.2278
744.346	65.1404
747.238	93.5868
750.131	114.026
753.024	112.88
755.916	80.7748
758.809	45.2114
761.702	22.3511
764.594	12.6409
767.487	7.34952
770.38	4.92564
773.273	2.85698
776.165	3.07433
779.058	3.22171
781.951	2.07311
784.843	5.38397
787.736	2.21295
790.629	5.16189
793.521	7.21759
796.414	12.3785
799.307	19.2573
802.199	27.9034
805.092	33.292
807.985	27.1148
810.878	14.3545
813.77	7.66144
816.663	4.59274
819.556	3.25611
822.448	3.54445
825.341	2.66206
828.234	2.29921
831.126	0.964169
834.019	1.06379
836.912	0.708614
839.804	0.367298
842.697	0.01379
845.59	0.988956
848.483	0.067596
851.375	0.177444
854.268	0.721878
857.161	0.758522
860.053	0.910217
862.946	1.30904
865.839	0.054726
868.731	6.81048
871.624	1.63191
874.517	1.17116
877.409	1.84058
880.302	0.239189
883.195	0.447445
886.088	1.02899
888.98	0.636082
891.873	2.91316
894.766	3.48619
897.658	5.24207
900.551	7.40636
903.444	9.89394
906.337	10.7728
909.229	13.696
912.122	17.9612
915.015	21.3697
917.907	30.6439
920.8	47.8228
923.693	76.0285
926.585	115.201
929.478	175.967
932.371	263.049
935.264	307.988
938.156	221.315
941.049	126.25
943.942	81.0903
946.834	65.5845
949.727	60.0893
952.62	58.1166
955.512	57.6804
958.405	58.5362
961.298	56.8919
964.191	55.2579
967.083	52.2856
969.976	51.0324
972.869	45.8237
975.761	42.5962
978.654	40.8897
981.547	39.4639
984.439	37.7835
987.332	30.5074
990.225	21.6783
993.117	12.9603
996.01	6.78222
998.903	2.20827
1001.8	1.52214
1004.69	2.70146
1007.58	2.34481
1010.47	1.02545
1013.37	3.56323
1016.26	11.2469
1019.15	22.3002
1022.04	25.7926
1024.94	15.6394
1027.83	4.3353
1030.72	1.62116
1033.62	3.04
1036.51	9.82878
1039.4	20.7574
1042.29	33.0116
1045.19	41.4322
1048.08	41.7368
1050.97	46.6943
1053.86	62.2144
1056.76	75.7611
1059.65	60.8951
1062.54	34.0786
1065.43	17.1421
1068.33	11.0931
1071.22	11.5043
1074.11	16.1629
1077.01	24.8424
1079.9	38.6756
1082.79	57.3433
1085.68	82.2083
1088.58	115.603
1091.47	146.721
1094.36	156.122
1097.26	139.715
1100.15	104.034
1103.04	76.6786
1105.93	65.6892
1108.83	57.9613
1111.72	49.7046
1114.61	37.7625
1117.5	27.8714
1120.4	17.0443
1123.29	10.6954
1126.18	8.1051
1129.07	4.69719
1131.97	2.8613
1134.86	1.90461
1137.75	0.875412
1140.64	0.352806
1143.54	0.632092
1146.43	0.108772
1149.32	0.560001
1152.22	0.654396
1155.11	0.499203
1158	0.74873
1160.89	0.665665
1163.79	0.06461
1166.68	0.905052
1169.57	0.242558
1172.46	1.31493
1175.36	1.11789
1178.25	1.38702
1181.14	2.2458
1184.04	2.36879
1186.93	3.16509
1189.82	2.42895
1192.71	2.88471
1195.61	2.4985
1198.5	2.60473
1201.39	2.72555
1204.28	2.02268
1207.18	2.32823
1210.07	2.64644
1212.96	1.82446
1215.86	1.23914
1218.75	0.840082
1221.64	0.366604
1224.53	1.39219
1227.43	1.38207
1230.32	1.43353
1233.21	0.744757
1236.1	0.697067
1239	0.271915
1241.89	0.424458
1244.78	0.064228
1247.67	0.5145
1250.57	0.753025
1253.46	0.800285
1256.35	2.3413
1259.25	3.31364
1262.14	3.77433
1265.03	4.78612
1267.92	5.50468
1270.82	6.08472
1273.71	4.77108
1276.6	3.73762
1279.49	1.51867
1282.39	0.598812
