Measurement: Raman, 785 nm, unoriented, Raman Data Processed
Mineral: Ussingite
Rruff sample: R070562
Ideal chemistry: Na_2_AlSi_3_O_8_(OH)
Locality: Tareq Slope, Ilimaussaq, Narsaq, Kitaa Province, Greenland
Source: James Shigley
Description: Pale purple massive
Measured chemistry: Na_2.00_Al_1.00_Si_3.00_O_8_((OH)_0.91_F_0.09_)_Î£=1_; OH by difference
Raman shift (cm-1)	intensity
132.138	0
135.031	1.33655
137.923	182.419
140.816	661.847
143.709	1667.74
146.602	1022.15
149.494	746.725
152.387	1092.07
155.28	1717.74
158.172	1488.7
161.065	715.565
163.958	403.451
166.851	320.897
169.743	411.951
172.636	463.819
175.529	143.814
178.421	2.99591
181.314	41.3633
184.207	2.83331
187.099	44.1531
189.992	165.92
192.885	257.958
195.778	384.596
198.67	339.86
201.563	224.923
204.456	98.3615
207.348	36.2929
210.241	15.2477
213.134	3.09692
216.026	63.0201
218.919	90.5089
221.812	27.2559
224.705	8.60101
227.597	9.03253
230.49	28.7605
233.383	112.752
236.275	159.699
239.168	96.1377
242.061	63.2484
244.953	130.075
247.846	323.065
250.739	594.341
253.632	929.533
256.524	1402.56
259.417	1946.66
262.31	2376.77
265.202	2084.74
268.095	1356.28
270.988	770.988
273.88	483.194
276.773	314.837
279.666	329.247
282.559	333.752
285.451	373.734
288.344	528.145
291.237	636.821
294.129	733.477
297.022	795.213
299.915	811.735
302.808	674.393
305.7	372.647
308.593	166.193
311.486	27.7408
314.378	14.1189
317.271	52.8264
320.164	1.73788
323.056	55.8415
325.949	110.472
328.842	232.742
331.735	233.358
334.627	116.293
337.52	41.4753
340.413	34.2946
343.305	33.8946
346.198	81.4995
349.091	168.144
351.983	202.834
354.876	309.824
357.769	449.443
360.661	465.079
363.554	444.44
366.447	366.527
369.34	337.086
372.232	201.461
375.125	65.3156
378.018	38.885
380.91	0.256683
383.803	18.0734
386.696	87.1797
389.589	162.14
392.481	154.552
395.374	143.968
398.267	93.1675
401.159	19.128
404.052	20.5844
406.945	41.0898
409.837	118.983
412.73	182.296
415.623	298.565
418.515	523.867
421.408	767.942
424.301	753.006
427.194	544.58
430.086	380.058
432.979	196.383
435.872	164.87
438.764	121.875
441.657	116.568
444.55	144.833
447.442	174.168
450.335	276.045
453.228	432.925
456.121	615.207
459.013	908.243
461.906	1345.1
464.799	1838.15
467.691	2456.1
470.584	3065.02
473.477	3333.63
476.37	3091.15
479.262	2804.58
482.155	2951.25
485.048	3680.03
487.94	3668.06
490.833	2438.27
493.726	1329.72
496.618	721.767
499.511	452.171
502.404	292.09
505.296	191.296
508.189	131.268
511.082	123.744
513.975	51.5261
516.867	50.6135
519.76	53.0264
522.653	48.7087
525.545	27.3011
528.438	0.830688
531.331	22.4922
534.223	1.81305
537.116	13.6562
540.009	6.05612
542.902	10.9133
545.794	50.7386
548.687	92.8301
551.58	148.17
554.472	213.729
557.365	344.695
560.258	511.627
563.15	492.803
566.043	471.549
568.936	328.202
571.829	215.416
574.721	133.72
577.614	84.5681
580.507	74.7393
583.399	75.0127
586.292	41.9251
589.185	32.5707
592.077	11.2151
594.97	9.98546
597.863	13.6935
600.756	15.8978
603.648	9.14391
606.541	3.77255
609.434	3.06656
612.327	3.26254
615.219	45.6225
618.112	14.4383
621.005	36.0479
623.897	15.3174
626.79	14.2799
629.683	7.69849
632.575	19.3449
635.468	37.1512
638.361	33.4894
641.254	67.6856
644.146	75.8466
647.039	92.2242
649.932	134.527
652.824	217.664
655.717	236.09
658.61	279.523
661.502	240.887
664.395	221.485
667.288	235.34
670.181	251.83
673.073	203.597
675.966	105.346
678.859	42.9833
681.751	27.9807
684.644	17.9865
687.537	4.56309
690.429	18.0469
693.322	15.275
696.215	13.2362
699.107	10.2607
702	9.28477
704.893	20.4334
707.786	18.1253
710.678	27.621
713.571	20.8169
716.464	55.4894
719.356	44.7765
722.249	59.5001
725.142	78.1034
728.034	65.0934
730.927	70.4435
733.82	98.6562
736.713	140.349
739.605	171.406
742.498	283.433
745.391	391.278
748.283	563.097
751.176	637.625
754.069	530.716
756.962	334.581
759.854	192.403
762.747	98.7177
765.64	68.6618
768.532	25.5219
771.425	25.4566
774.318	19.5649
777.21	6.10525
780.103	3.54898
782.996	31.1097
785.889	23.4004
788.781	33.218
791.674	39.1237
794.567	78.6972
797.459	135.82
800.352	172.884
803.245	231.931
806.137	221.622
809.03	168.747
811.923	65.0191
814.816	49.7375
817.708	39.2101
820.601	30.0229
823.494	20.5233
826.386	15.8527
829.279	10.7302
832.172	4.23206
835.064	26.919
837.957	16.8054
840.85	5.09192
843.742	13.3496
846.635	0.02597
849.528	7.56474
852.421	13.6887
855.313	0.612671
858.206	3.92836
861.099	1.31663
863.991	14.6557
866.884	13.7976
869.777	11.6015
872.669	26.7632
875.562	9.39383
878.455	24.4621
881.348	24.5571
884.24	41.2383
887.133	36.977
890.026	47.065
892.918	41.0425
895.811	72.6935
898.704	77.666
901.596	92.2827
904.489	89.9234
907.382	84.4312
910.275	102.016
913.167	123.049
916.06	119.966
918.953	157.356
921.846	259.668
924.738	423.086
927.631	740.161
930.524	1087.36
933.416	1435.89
936.309	1236.31
939.202	693.565
942.094	401.811
944.987	264.103
947.88	236.468
950.773	238.554
953.665	242.006
956.558	237.771
959.451	249.885
962.343	256.637
965.236	249.895
968.129	220.622
971.021	219.314
973.914	206.389
976.807	208.79
979.699	184.638
982.592	207.529
985.485	189.921
988.378	203.578
991.27	115.365
994.163	110.62
997.056	69.0182
999.948	22.8742
1002.84	9.48572
1005.73	24.6558
1008.63	14.4908
1011.52	18.2017
1014.41	11.7449
1017.3	6.2007
1020.2	22.8804
1023.09	0.229828
1025.98	8.72574
1028.88	3.92587
1031.77	19.0506
1034.66	4.14972
1037.55	28.6456
1040.45	88.5379
1043.34	106.865
1046.23	115.736
1049.12	172.579
1052.02	233.396
1054.91	324.279
1057.8	322.032
1060.69	225.345
1063.59	150.205
1066.48	90.4007
1069.37	73.6937
1072.27	88.7215
1075.16	110.472
1078.05	152.022
1080.94	182.034
1083.84	246.343
1086.73	269.216
1089.62	306.19
1092.52	320.761
1095.41	293.806
1098.3	255.225
1101.19	276.509
1104.09	270.087
1106.98	263.86
1109.87	235.408
1112.76	204.137
1115.66	127.826
1118.55	103.746
1121.44	55.2121
1124.33	45.9607
1127.23	56.6407
1130.12	19.133
1133.01	19.0542
1135.9	8.52698
1138.8	20.7231
1141.69	22.206
1144.58	3.09744
1147.48	7.16664
1150.37	6.92963
1153.26	13.7822
1156.15	28.275
1159.05	3.84181
1161.94	32.2574
1164.83	12.1422
1167.72	7.51839
1170.62	28.9243
1173.51	14.7542
1176.4	21.2987
1179.3	11.4143
1182.19	19.8515
1185.08	2.90312
1187.97	27.1879
1190.87	28.2534
1193.76	29.635
1196.65	37.4935
1199.55	31.3165
1202.44	24.3143
1205.33	21.4051
1208.22	26.4563
1211.12	25.2471
1214.01	42.4309
1216.9	26.0579
1219.79	46.6436
1222.69	16.7172
1225.58	28.3833
1228.47	35.5584
1231.36	25.7242
1234.26	28.3071
1237.15	32.8151
1240.04	57.7518
1242.93	10.1846
1245.83	10.2768
1248.72	8.27416
1251.61	7.37779
1254.51	23.7196
