Measurement: Raman, 532 nm, unoriented, Raman Data Processed
Mineral: Uvarovite
Rruff sample: R061041
Ideal chemistry: Ca_3_Cr_2_(SiO_4_)_3_
Locality: Outokumpu, Finland
Source: Royal Ontario Museum
Description: Emerald-green euhedral crystal
Measured chemistry: (Ca_2.93_Mg_0.05_Mn_0.01_[box]_0.01_)_Σ=3.00_(Cr_1.23_Al_0.72_Fe^3+^_0.03_Ti_0.02_)_Σ=2_(Si_1.00_O_4_)_3_
Raman shift (cm-1)	intensity
145.146	0
148.038	49.9641
150.931	25.2085
153.824	58.2227
156.717	5.09302
159.609	45.637
162.502	145.702
165.395	219.503
168.287	502.885
171.18	961.148
174.073	1337.29
176.965	2001.19
179.858	1430.17
182.751	696.802
185.644	334.851
188.536	238.737
191.429	210.227
194.322	104.388
197.214	67.0386
200.107	49.3706
203	93.1675
205.893	87.4341
208.785	54.8076
211.678	81.478
214.571	112.774
217.463	71.7236
220.356	40.2227
223.249	85.5102
226.141	243.186
229.034	386.756
231.927	772.539
234.82	1154.26
237.712	1578.9
240.605	2195.2
243.498	1797.97
246.39	724.275
249.283	390.622
252.176	285.864
255.068	138.989
257.961	286.736
260.854	403.925
263.747	778.523
266.639	1054.21
269.532	1442.93
272.425	1690.48
275.317	928.339
278.21	489.088
281.103	329.737
283.995	224.33
286.888	33.5337
289.781	76.1025
292.673	137.274
295.566	5.17139
298.459	32.2114
301.351	7.56494
304.244	40.3892
307.137	81.0972
310.03	19.7607
312.922	123.552
315.815	118.751
318.708	191.132
321.6	269.724
324.493	444.84
327.386	529.6
330.279	715.468
333.171	874.97
336.064	979.466
338.957	1291.06
341.849	1420.95
344.742	1502.29
347.635	1800.33
350.527	2416.82
353.42	3537.46
356.313	5375.16
359.205	8782.85
362.098	14026.5
364.991	19792.8
367.884	25602.6
370.776	28565.6
373.669	21345.6
376.562	11463.6
379.454	6271
382.347	3882.12
385.24	2643.32
388.132	2066.73
391.025	1678.9
393.918	1509
396.81	1410.42
399.703	1485.46
402.596	1393.6
405.489	891.2
408.381	501.918
411.274	173.648
414.167	56.1089
417.059	72.8379
419.952	40.5308
422.845	51.8901
425.738	34.3823
428.63	42.019
431.523	132.721
434.416	16.9385
437.308	12.8428
440.201	228.742
443.094	273.653
445.986	265.725
448.879	266.123
451.772	218.174
454.664	171.323
457.557	241.487
460.45	223.477
463.343	253.405
466.235	191.379
469.128	86.0737
472.021	20.186
474.913	23.6616
477.806	19.2202
480.699	48.8657
483.591	110.627
486.484	179.579
489.377	334.32
492.27	472.487
495.162	524.73
498.055	534.487
500.948	681.362
503.84	920.871
506.733	1212.83
509.626	1437.18
512.519	1475.45
515.411	1560.46
518.304	2317.76
521.197	3656.88
524.089	5336.45
526.982	7483.04
529.875	9431.95
532.767	9365.9
535.66	5523.03
538.553	2185.43
541.445	915.83
544.338	413.402
547.231	116.514
550.124	104.999
553.016	48.9219
555.909	126.737
558.802	171.794
561.694	180.292
564.587	189.365
567.48	91.5918
570.372	108.928
573.265	107.439
576.158	148.544
579.051	189.007
581.943	385.952
584.836	559.418
587.729	855.408
590.621	1319.77
593.514	1443.18
596.407	858.456
599.299	622.92
602.192	805.019
605.085	828.133
607.977	958.098
610.87	1082.93
613.763	1126.7
616.656	1340.71
619.548	1447.73
622.441	1357.03
625.334	1032.68
628.226	709.243
631.119	623.675
634.012	452.161
636.904	297.19
639.797	187.299
642.69	61.5903
645.583	11.7021
648.475	54.082
651.368	0.651367
654.261	2.81299
657.153	2.64795
660.046	7.44678
662.939	50.5972
665.832	7.95068
668.724	5.97949
671.617	84.5205
674.51	5.0376
677.402	25.8296
680.295	81.9077
683.188	80.7764
686.08	134.617
688.973	164.358
691.866	170.814
694.759	136.817
697.651	166.179
700.544	177.616
703.437	217.926
706.329	179.817
709.222	183.049
712.115	205.88
715.007	236.273
717.9	193.677
720.793	85.2598
723.685	187.362
726.578	159.653
729.471	122.508
732.364	107.502
735.256	145.736
738.149	94.7876
741.042	67.1152
743.934	100.75
746.827	116.707
749.72	81.9937
752.612	95.6352
755.505	59.6279
758.398	66.0317
761.29	23.6729
764.183	113.412
767.076	105.171
769.969	116.04
772.861	83.2481
775.754	18.4009
778.647	51.8667
781.539	29.5337
784.432	5.37061
787.325	108.84
790.217	41.9482
793.11	9.6294
796.003	96.1494
798.896	244.62
801.788	395.682
804.681	668.234
807.574	1047.35
810.466	1542.46
813.359	2123.92
816.252	2750.07
819.144	3369.69
822.037	3973.63
824.93	4479.07
827.823	4865.41
830.715	5225.34
833.608	5509.8
836.501	5668.6
839.393	5464.27
842.286	5051.73
845.179	4305.2
848.072	3622.66
850.964	3124.42
853.857	2848.31
856.75	2881.95
859.642	3124.63
862.535	3481.67
865.428	4100.71
868.32	4920.61
871.213	5968.35
874.106	7152.27
876.998	8364.51
879.891	8894.75
882.784	8915.96
885.677	9081.4
888.569	9812.95
891.462	10895.8
894.355	10838.3
897.247	9282.87
900.14	6642.76
903.033	4384.19
905.925	2729.7
908.818	1624.28
911.711	975.312
914.604	549.892
917.496	249.79
920.389	178.302
923.282	12.1592
926.174	18.2236
929.067	7.1665
931.96	15.5107
934.852	10.4883
937.745	43.981
940.638	170.212
943.53	150.855
946.423	27.9273
949.316	42.2593
952.209	47.5913
955.101	99.3423
957.994	59.9536
960.887	33.7398
963.779	22.6118
966.672	142.842
969.565	160.822
972.457	285.209
975.35	341.401
978.243	415.948
981.136	501.297
984.028	553.879
986.921	487.465
989.814	553.285
992.706	599.672
995.599	639.797
998.492	712.68
1001.38	764.567
1004.28	805.852
1007.17	604.457
1010.06	522.504
1012.96	378.436
1015.85	196.419
1018.74	140.136
1021.63	149.541
1024.53	137.999
1027.42	116.995
1030.31	25.6064
1033.2	97.9253
1036.1	39.6626
1038.99	88.3345
1041.88	11.6797
1044.78	23.5674
1047.67	63.6665
1050.56	35.9951
1053.45	150.302
1056.35	85.7334
1059.24	100.79
1062.13	124.506
1065.02	93.5386
1067.92	27.8652
1070.81	102.291
1073.7	44.4355
1076.6	47.4585
1079.49	11.3892
1082.38	1.72168
1085.27	59.8071
1088.16	56.8779
1091.06	52.8897
1093.95	33.6133
1096.84	95.8765
1099.74	58.6611
1102.63	104.876
1105.52	72.3813
1108.41	75.4424
1111.31	114.919
1114.2	128.44
1117.09	126.347
1119.98	90.604
1122.88	63.9004
1125.77	133.704
1128.66	154.85
1131.56	111.284
1134.45	141.787
1137.34	151.377
1140.23	118.576
1143.13	120.486
1146.02	83.916
1148.91	65.7432
1151.81	81.0264
1154.7	120.933
1157.59	123.093
1160.48	106.104
1163.38	47.064
1166.27	59.8447
1169.16	14.9751
1172.05	46.6294
1174.95	46.1123
1177.84	75.8848
1180.73	38.5684
1183.62	21.4873
1186.52	49.3169
1189.41	49.0942
1192.3	4.65332
1195.19	26.4175
1198.09	49.2495
1200.98	77.0137
1203.87	80.0977
1206.77	3.59912
1209.66	63.7993
1212.55	138.533
1215.44	136.962
1218.34	19.0869
1221.23	93.3325
1224.12	70.251
1227.02	74.0469
1229.91	199.503
1232.8	92.2856
1235.69	101.906
1238.59	18.9321
1241.48	111.888
1244.37	186.815
1247.26	104.556
1250.16	35.6973
1253.05	36.9482
1255.94	95.6148
1258.84	60.1631
1261.73	96.8696
1264.62	8.94482
1267.51	89.6816
1270.4	112.459
1273.3	122.083
1276.19	110.012
1279.08	13.9995
1281.98	65.2896
1284.87	57.3745
1287.76	77.4863
1290.65	6.88086
1293.55	49.5523
1296.44	75.3306
