Measurement: Raman, 532 nm, unoriented, Raman Data Processed
Mineral: Uvarovite
Rruff sample: R060477
Ideal chemistry: Ca_3_Cr_2_(SiO_4_)_3_
Locality: Saranovskiy mine, Sarany, Ural Mountains, Russia
Source: Michael Scott
Description: A druse of green dodecahedral crystals
Measured chemistry: Ca_3.00_(Cr_1.15_Al_0.82_Ti_0.03_)_Σ=2_((Si_0.99_Al_0.01_)_Σ=1_O_4_)_3_
Raman shift (cm-1)	intensity
95.4842	0
98.859	0.930341
102.234	1.48045
105.609	1.02851
108.984	0.07162
112.358	0.144882
115.733	0.135593
119.108	0.300757
122.483	1.69759
125.858	2.97258
129.232	6.08929
132.607	7.53553
135.982	8.98782
139.357	11.2967
142.732	12.5248
146.106	14.0485
149.481	13.8815
152.856	13.6477
156.231	13.5235
159.606	15.1149
162.981	18.5628
166.355	20.7085
169.73	24.1044
173.105	36.4502
176.48	71.3794
179.855	76.1607
183.229	24.8301
186.604	11.3503
189.979	10.4047
193.354	8.37801
196.729	4.80949
200.103	4.05282
203.478	2.18058
206.853	2.33604
210.228	2.63376
213.603	0.58152
216.978	0.760349
220.352	0.434597
223.727	2.7326
227.102	7.61384
230.477	11.4516
233.852	21.0698
237.226	34.9395
240.601	59.7366
243.976	69.9143
247.351	21.1533
250.726	6.30573
254.101	3.41719
257.475	5.50108
260.85	5.69899
264.225	10.3097
267.6	19.9864
270.975	45.2508
274.349	51.3146
277.724	23.867
281.099	16.3509
284.474	15.4315
287.849	9.84112
291.224	0.885906
294.598	1.82033
297.973	0.789352
301.348	0.904076
304.723	0.177231
308.098	0.189018
311.473	0.586361
314.847	4.51687
318.222	8.69146
321.597	11.7027
324.972	14.5522
328.347	17.896
331.721	25.2228
335.096	29.6082
338.471	41.0425
341.846	51.4775
345.221	54.5007
348.596	70.2688
351.97	108.153
355.345	171.338
358.72	258.752
362.095	391.423
365.469	605.521
368.844	893.499
372.219	924.114
375.594	506.308
378.969	241.585
382.344	136.824
385.718	93.6141
389.093	69.2518
392.468	53.1964
395.843	45.8041
399.218	42.6213
402.592	46.9244
405.967	41.3002
409.342	22.7433
412.717	11.1638
416.092	4.23778
419.467	1.45829
422.841	0.435108
426.216	0.916882
429.591	0.115032
432.966	0.869717
436.341	0.46994
439.716	0.219154
443.09	2.5382
446.465	4.80722
449.84	5.76681
453.215	5.66346
456.59	7.29292
459.964	9.68091
463.339	13.137
466.714	13.64
470.089	5.38127
473.464	0.790249
476.839	1.09095
480.213	0.886139
483.588	1.63937
486.963	4.62287
490.338	10.1013
493.713	14.375
497.087	12.3248
500.462	10.3219
503.837	13.5187
507.212	18.7862
510.587	23.7924
513.962	24.9175
517.336	38.4173
520.711	64.8475
524.086	104.892
527.461	175.223
530.836	266.031
534.21	267.57
537.585	126.416
540.96	46.0675
544.335	20.8353
547.71	9.67306
551.085	7.70915
554.459	6.95074
557.834	6.82576
561.209	7.15229
564.584	5.91884
567.959	3.56114
571.333	0.985275
574.708	0.621128
578.083	0.046795
581.458	2.08507
584.833	4.37311
588.207	14.0458
591.582	21.0868
594.957	15.8334
598.332	10.4497
601.707	11.0016
605.082	12.7238
608.456	14.3305
611.831	16.9109
615.206	19.5119
618.581	23.7304
621.956	22.7409
625.33	15.739
628.705	8.3339
632.08	4.18155
635.455	1.65312
638.83	0.785187
642.205	0.396078
645.579	0.586535
648.954	0.768667
652.329	0.415527
655.704	0.168743
659.079	0.101048
662.453	0.075347
665.828	0.316112
669.203	1.64138
672.578	2.08624
675.953	2.74716
679.327	2.68827
682.702	3.73696
686.077	4.13491
689.452	4.44205
692.827	4.39097
696.202	3.88503
699.576	3.96903
702.951	4.19988
706.326	3.12093
709.701	2.74716
713.076	2.0009
716.451	1.0895
719.825	0.738788
723.2	0.341095
726.575	0.395742
729.95	0.244228
733.325	0.493535
736.699	0.023371
740.074	0.697752
743.449	0.483431
746.824	1.19737
750.199	1.41293
753.573	2.85839
756.948	4.81874
760.323	6.46125
763.698	9.52077
767.073	10.0667
770.448	9.28686
773.822	6.30757
777.197	4.34409
780.572	0.73756
783.947	1.55919
787.322	2.31919
790.697	1.62367
794.071	1.01093
797.446	6.32328
800.821	14.4579
804.196	26.1396
807.571	42.4323
810.945	60.9099
814.32	74.8056
817.695	89.0239
821.07	101.977
824.445	110.467
827.819	116.314
831.194	114.663
834.569	109.688
837.944	100.12
841.319	87.2845
844.693	72.4608
848.068	62.468
851.443	57.8906
854.818	58.0873
858.193	63.8899
861.568	78.7118
864.942	103.426
868.317	139.768
871.692	189.622
875.067	241.625
878.442	269.529
881.817	252.334
885.191	235.734
888.566	237.993
891.941	227.309
895.316	181.953
898.691	126
902.065	77.3359
905.44	43.6293
908.815	23.2005
912.19	10.4452
915.565	3.71211
918.939	0.018581
922.314	1.54889
925.689	1.35542
929.064	0.753752
932.439	0.527514
935.814	0.217937
939.188	3.05174
942.563	3.85868
945.938	2.9624
949.313	2.12537
952.688	0.136814
956.062	0.863693
959.437	0.091957
962.812	1.32447
966.187	2.90627
969.562	5.43898
972.937	6.96557
976.311	9.54749
979.686	11.6448
983.061	12.3894
986.436	13.1885
989.811	14.2505
993.186	16.4457
996.56	17.7219
999.935	20.9335
1003.31	22.0068
1006.68	19.6076
1010.06	12.0928
1013.43	6.66896
1016.81	3.78886
1020.18	2.65179
1023.56	2.03792
1026.93	2.87342
1030.31	1.80812
1033.68	0.434366
1037.06	0.440294
1040.43	0.155972
1043.81	0.431433
1047.18	0.389544
1050.56	0.459185
1053.93	0.579675
1057.31	0.309121
1060.68	0.47762
1064.06	0.695743
1067.43	0.118085
1070.81	0.289865
1074.18	0.078086
1077.56	0.602261
1080.93	0.592587
1084.31	0.280004
1087.68	0.478855
1091.06	0.655871
1094.43	0.731592
1097.81	0.414261
1101.18	0.451858
1104.55	0.646424
1107.93	0.570956
1111.3	0.904249
1114.68	1.26081
1118.05	1.96195
1121.43	2.19799
1124.8	1.76846
1128.18	2.02034
1131.55	2.43289
1134.93	2.18282
1138.3	2.19211
1141.68	2.0485
1145.05	2.49863
1148.43	2.07382
1151.8	2.39972
1155.18	1.77819
1158.55	1.92539
1161.93	1.45159
1165.3	1.06227
1168.68	0.386281
1172.05	0.340121
1175.43	0.137832
1178.8	0.112091
1182.17	0.007965
1185.55	0.10768
1188.92	0.313678
1192.3	0.20654
1195.67	0.187973
1199.05	0.972337
1202.42	0.891558
1205.8	0.634317
1209.17	1.27865
1212.55	0.979754
1215.92	1.44101
1219.3	1.39091
1222.67	1.72464
1226.05	1.69388
1229.42	1.68388
1232.8	2.30205
1236.17	1.95977
1239.55	1.9691
1242.92	1.97953
1246.3	2.03081
1249.67	1.74095
1253.05	1.27655
1256.42	1.07076
1259.8	1.02533
1263.17	0.563916
1266.55	0.577941
1269.92	0.575102
1273.3	0.092027
1276.67	0.204631
1280.05	0.743659
1283.42	0.492882
1286.8	0.335818
1290.17	0.165998
1293.54	0.324133
1296.92	0.762614
1300.29	0.67928
1303.67	0.019034
