Measurement: Raman, 785 nm, unoriented, Raman Data Processed
Mineral: Uvarovite
Rruff sample: R061041
Ideal chemistry: Ca_3_Cr_2_(SiO_4_)_3_
Locality: Outokumpu, Finland
Source: Royal Ontario Museum
Description: Emerald-green euhedral crystal
Measured chemistry: (Ca_2.93_Mg_0.05_Mn_0.01_[box]_0.01_)_Σ=3.00_(Cr_1.23_Al_0.72_Fe^3+^_0.03_Ti_0.02_)_Σ=2_(Si_1.00_O_4_)_3_
Raman shift (cm-1)	intensity
187.096	0
189.507	54.8687
191.917	50.4575
194.328	30.623
196.738	40.0874
199.149	73.9946
201.56	52.1235
203.97	87.9356
206.381	62.874
208.791	54.0723
211.202	67.1221
213.612	62.0723
216.023	51.4951
218.434	222.607
220.844	251.524
223.255	330.968
225.665	376.583
228.076	328.672
230.487	427.287
232.897	528.198
235.308	677.144
237.718	955.419
240.129	1275.57
242.539	1319.35
244.95	797.495
247.361	462.544
249.771	332.787
252.182	343.957
254.592	416.953
257.003	375.188
259.413	421.947
261.824	533.365
264.235	568.495
266.645	725.293
269.056	918.902
271.466	981.144
273.877	659.284
276.288	312.556
278.698	288.228
281.109	223.606
283.519	143.03
285.93	41.3184
288.341	106.516
290.751	95.1982
293.162	16.4834
295.572	67.8311
297.983	29.9697
300.393	33.834
302.804	125.274
305.215	194.537
307.625	274.213
310.036	307.087
312.446	346.729
314.857	367.353
317.267	554.743
319.678	526.061
322.089	730.466
324.499	936.754
326.91	1198.13
329.32	1398.91
331.731	1657.6
334.142	1885.4
336.552	1993.9
338.963	2278.3
341.373	2711.2
343.784	2886.93
346.195	3121.95
348.605	3226.12
351.016	3420.37
353.426	3489.65
355.837	3696.87
358.247	4139.97
360.658	4776.34
363.069	6296.61
365.479	8344.99
367.89	10344.2
370.3	11533.9
372.711	9472.16
375.122	5842.1
377.532	3358.04
379.943	1925.28
382.353	1105.55
384.764	746.717
387.174	413.202
389.585	316.669
391.996	292.947
394.406	307.827
396.817	452.997
399.227	491.69
401.638	473.941
404.048	468.882
406.459	279.035
408.87	108.076
411.28	233.204
413.691	353.663
416.101	408.828
418.512	429.559
420.923	502.687
423.333	445.765
425.744	432.321
428.154	454.935
430.565	373.745
432.976	289.961
435.386	210.709
437.797	210.89
440.207	238.111
442.618	196.036
445.028	90.4863
447.439	29.8486
449.85	27.6221
452.26	78.4658
454.671	81.4648
457.081	6.32715
459.492	91.3018
461.902	51.4912
464.313	27.0713
466.724	24.8428
469.134	12.8867
471.545	25.9668
473.955	83.457
476.366	67.4326
478.777	45.0586
481.187	76.334
483.598	232.454
486.008	406.798
488.419	674.188
490.829	870.754
493.24	999.601
495.651	1127.4
498.061	1364.62
500.472	1475.01
502.882	1708.44
505.293	1918.56
507.704	2149.19
510.114	2250.91
512.525	2277.62
514.935	2270.97
517.346	2186.53
519.756	2239.97
522.167	2470.46
524.578	2902.91
526.988	3519.19
529.399	3963.77
531.809	4090.04
534.22	2953.79
536.631	1705.29
539.041	922.303
541.452	517.615
543.862	232.724
546.273	96.4394
548.683	56.4727
551.094	17.8154
553.505	6.02246
555.915	29.0205
558.326	126.276
560.736	136.901
563.147	161.331
565.558	75.2158
567.968	1.99023
570.379	14.918
572.789	162.875
575.2	166.305
577.611	179.36
580.021	341.163
582.432	368.033
584.842	520.972
587.253	599.823
589.663	652.212
592.074	726.761
594.485	762.253
596.895	698.336
599.306	781.104
601.716	738.786
604.127	801.681
606.538	750.87
608.948	800.131
611.359	839.871
613.769	763.01
616.18	849.261
618.59	882.465
621.001	869.561
623.412	736.246
625.822	679.582
628.233	543.577
630.643	595.492
633.054	444.275
635.465	428.369
637.875	366.929
640.286	284.458
642.696	248.428
645.107	162.356
647.517	157.248
649.928	92.5488
652.339	108.978
654.749	178.673
657.16	148.793
659.57	131.574
661.981	72.3965
664.391	32.4805
666.802	40.8359
669.213	24.3535
671.623	24.1211
674.034	91.8594
676.444	143.34
678.855	83.2559
681.266	70.1465
683.676	113.941
686.087	154.205
688.497	93.3281
690.908	184.955
693.318	277.463
695.729	227.404
698.14	254.607
700.55	162.99
702.961	227.82
705.371	172.486
707.782	216.904
710.193	210.465
712.603	274.047
715.014	114.887
717.424	107.088
719.835	187.625
722.245	187.207
724.656	126.772
727.067	84.4824
729.477	13.7051
731.888	36.5898
734.298	8.99414
736.709	96.9844
739.12	33.3789
741.53	93.5488
743.941	119.189
746.351	30.9785
748.762	31.2637
751.173	32.3047
753.583	13.0371
755.994	1.62891
758.404	43.7754
760.815	79.3848
763.225	3.85742
765.636	176.547
768.047	20.4941
770.457	140.5
772.868	252.873
775.278	163.475
777.689	276.785
780.1	228.269
782.51	265.918
784.921	269.084
787.331	336.326
789.742	225.219
792.152	127.756
794.563	153.371
796.974	246.461
799.384	245.207
801.795	240.713
804.205	331.658
806.616	371.713
809.027	516.453
811.437	532.545
813.848	790.111
816.258	831.734
818.669	918.223
821.079	884.166
823.49	1062.86
825.901	1180.69
828.311	1210.41
830.722	1381.17
833.132	1461.55
835.543	1477.09
837.953	1460.49
840.364	1312.32
842.775	1274.13
845.185	1115.53
847.596	873.037
850.006	763.234
852.417	548.791
854.827	494.682
857.238	398.592
859.649	626.625
862.059	685.129
864.47	800.555
866.88	1109.91
869.291	1433.11
871.702	1813.94
874.112	2289.64
876.523	2730.66
878.933	3184.67
881.344	2902.87
883.755	2426.28
886.165	2175.95
888.576	2210.22
890.986	2412.43
893.397	2311.62
895.807	2131.51
898.218	1697.71
900.629	1093.96
903.039	749.973
905.45	548.061
907.86	340.359
910.271	221.703
912.682	163.545
915.092	53.5117
917.503	62.4355
919.913	117.291
922.324	136.029
924.734	119.481
927.145	66.4785
929.556	74.5859
931.966	35.8281
934.377	94.957
936.787	175.393
939.198	96.4219
941.609	62.9277
944.019	232.627
946.43	243.486
948.84	201.078
951.251	350.133
953.661	272.385
956.072	396.504
958.483	363.199
960.893	364.992
963.304	471.611
965.714	497.115
968.125	446.17
970.535	572.488
972.946	422.928
975.357	410.842
977.767	432.477
980.178	515.666
982.588	400.371
984.999	449.338
987.41	412.078
989.82	325.568
992.231	226.607
994.641	353.742
997.052	416.125
999.462	447.658
1001.87	575.756
1004.28	562.195
1006.69	543.184
1009.11	452.812
1011.51	391.963
1013.93	534.098
1016.34	351.035
1018.75	323.185
1021.16	342.484
1023.57	311.539
1025.98	346.975
1028.39	455.856
1030.8	434.779
1033.21	458.254
1035.62	585.648
1038.03	428.56
1040.44	444.945
1042.85	408.801
1045.26	308.539
1047.67	248.557
1050.09	124.148
1052.49	71.8066
1054.91	170.965
1057.32	132.19
1059.73	15.873
1062.14	7.97852
1064.55	4.82812
1066.96	67.3457
1069.37	56.9805
1071.78	140.113
1074.19	45.2598
1076.6	153.664
1079.01	161.992
1081.42	154.594
1083.83	174.402
1086.24	162.293
1088.65	62.0293
1091.07	5.76367
1093.47	4.83594
1095.89	185.795
1098.3	274.312
1100.71	130.477
1103.12	110.215
1105.53	116.449
1107.94	6.92188
