Measurement: Raman, 780 nm, unoriented, Raman Data Processed
Mineral: Uvarovite
Rruff sample: R060477
Ideal chemistry: Ca_3_Cr_2_(SiO_4_)_3_
Locality: Saranovskiy mine, Sarany, Ural Mountains, Russia
Source: Michael Scott
Description: A druse of green dodecahedral crystals
Measured chemistry: Ca_3.00_(Cr_1.15_Al_0.82_Ti_0.03_)_Σ=2_((Si_0.99_Al_0.01_)_Σ=1_O_4_)_3_
Raman shift (cm-1)	intensity
92.2061	0
95.0987	1.61267
97.9915	2.12476
100.884	2.25262
103.777	1.12846
106.669	0.971905
109.562	0.674706
112.455	1.00433
115.348	0.099426
118.24	0.545269
121.133	0.044537
124.026	0.705009
126.918	1.10306
129.811	0.743076
132.704	0.325981
135.596	0.736889
138.489	2.8714
141.382	2.72036
144.275	2.76985
147.167	3.27654
150.06	4.5578
152.953	6.19872
155.845	7.63744
158.738	8.24622
161.631	9.78701
164.524	9.36694
167.416	11.7033
170.309	13.6219
173.202	19.4867
176.094	43.7555
178.987	43.4419
181.88	13.4466
184.772	3.69858
187.665	4.43301
190.558	3.47494
193.451	1.74877
196.343	0.68605
199.236	1.91946
202.129	0.16922
205.021	1.73679
207.914	0.410419
210.807	0.704414
213.699	0.322956
216.592	0.73159
219.485	0.499424
222.377	2.96591
225.27	4.93799
228.163	7.65515
231.056	11.6301
233.948	17.4842
236.841	26.939
239.734	46.9528
242.626	54.0802
245.519	22.9969
248.412	10.106
251.304	6.31128
254.197	6.6631
257.09	5.43341
259.983	6.54896
262.875	8.68859
265.768	11.5146
268.661	25.1082
271.553	42.4012
274.446	29.9575
277.339	14.1284
280.231	9.64907
283.124	9.74193
286.017	6.5004
288.909	2.05366
291.802	1.20817
294.695	1.15367
297.588	1.26907
300.48	0.327057
303.373	0.253059
306.266	0.839401
309.158	0.773743
312.051	0.543282
314.944	1.55949
317.837	3.93233
320.729	7.58984
323.622	8.73007
326.515	9.27322
329.407	12.6886
332.3	15.8921
335.193	17.6531
338.085	21.7333
340.978	26.1237
343.871	27.7238
346.764	33.2652
349.656	48.977
352.549	71.3053
355.442	96.7481
358.334	130.106
361.227	186.392
364.12	274.862
367.012	400.511
369.905	480.856
372.798	361.053
375.69	191.418
378.583	103.018
381.476	62.6087
384.369	43.7291
387.261	33.2868
390.154	25.7628
393.047	23.322
395.939	24.3782
398.832	26.772
401.725	32.6333
404.617	33.5768
407.51	23.6317
410.403	17.5177
413.296	16.1875
416.188	16.9363
419.081	17.8108
421.974	20.2965
424.866	19.6372
427.759	19.7032
430.652	16.25
433.544	13.862
436.437	12.8289
439.33	8.97784
442.223	7.42855
445.115	4.11964
448.008	3.18539
450.901	0.964615
453.793	0.541019
456.686	0.197098
459.579	0.447819
462.471	1.48972
465.364	1.0685
468.257	1.45314
471.149	2.01511
474.042	1.54663
476.935	1.58782
479.828	1.21698
482.72	0.689175
485.613	3.16005
488.506	5.52076
491.398	8.43419
494.291	9.53861
497.184	9.81906
500.077	10.4845
502.969	12.0162
505.862	15.3611
508.755	18.7394
511.647	19.2692
514.54	22.2682
517.433	28.2101
520.325	38.1923
523.218	52.3307
526.111	81.0575
529.004	124.45
531.896	149.946
534.789	110.086
537.682	50.6283
540.574	22.5675
543.467	11.2714
546.36	6.86459
549.252	4.93943
552.145	4.57651
555.038	6.00111
557.93	6.93975
560.823	7.59889
563.716	8.24963
566.609	8.90775
569.501	9.82028
572.394	9.26946
575.287	10.3484
578.179	12.4352
581.072	13.8835
583.965	15.7074
586.857	17.9235
589.75	20.2527
592.643	19.7062
595.535	15.9049
598.428	14.1705
601.321	12.0053
604.214	10.5165
607.106	9.7972
609.999	8.3573
612.892	9.22778
615.784	10.8759
618.677	12.9069
621.57	12.5827
624.462	7.42655
627.355	3.81371
630.248	0.555691
633.141	0.950958
636.033	1.88267
638.926	0.353611
641.819	0.42263
644.711	0.216217
647.604	1.28716
650.497	1.23711
653.389	2.01635
656.282	3.45988
659.175	2.49983
662.068	4.24591
664.96	5.09865
667.853	5.68213
670.746	5.29205
673.638	5.4003
676.531	5.07813
679.424	3.95
682.317	4.2329
685.209	3.98273
688.102	4.39206
690.995	4.49561
693.887	2.93802
696.78	2.16016
699.673	2.03151
702.565	1.17099
705.458	1.19524
708.351	1.57328
711.243	0.826868
714.136	1.55158
717.029	0.631248
719.922	0.309662
722.814	0.276493
725.707	0.118404
728.6	0.734383
731.492	0.118446
734.385	0.58337
737.278	0.485264
740.17	0.186714
743.063	0.442467
745.956	0.07613
748.848	0.055897
751.741	1.69513
754.634	2.80136
757.527	4.34662
760.419	5.6773
763.312	6.00699
766.205	6.87728
769.097	7.8846
771.99	6.5147
774.883	4.19813
777.775	1.95358
780.668	0.060772
783.561	1.02383
786.454	2.08024
789.346	1.14281
792.239	0.872066
795.132	2.66662
798.024	7.38874
800.917	14.218
803.81	22.8377
806.702	32.5396
809.595	44.9662
812.488	54.1239
815.381	63.0369
818.273	72.8209
821.166	80.2441
824.059	84.678
826.951	87.9343
829.844	86.5906
832.737	85.647
835.63	82.9531
838.522	75.8438
841.415	66.1445
844.308	56.3718
847.2	50.0071
850.093	45.5402
852.986	43.4419
855.878	45.1388
858.771	51.8395
861.664	61.4738
864.557	77.7036
867.449	97.68
870.342	122.974
873.235	156.679
876.127	184.338
879.02	184.2
881.913	159.743
884.805	138.056
887.698	129.214
890.591	120.861
893.483	105.865
896.376	81.4122
899.269	55.5058
902.162	35.8952
905.054	22.7049
907.947	13.6808
910.84	6.63212
913.732	3.51574
916.625	0.018066
919.518	1.49251
922.41	0.743973
925.303	1.82387
928.196	0.286919
931.088	0.81345
933.981	0.148602
936.874	1.46579
939.767	1.38469
942.659	2.77035
945.552	1.51622
948.445	1.34043
951.337	0.42981
954.23	0.117764
957.123	0.006302
960.015	0.651268
962.908	1.80905
965.801	2.91449
968.693	3.03445
971.586	3.94834
974.479	5.05333
977.372	5.35661
980.264	7.06597
983.157	6.57424
986.05	7.61769
988.942	7.23682
991.835	7.30735
994.728	8.11944
997.62	8.88197
1000.51	10.2125
1003.41	9.50092
1006.3	7.72338
1009.19	5.48613
1012.08	2.92749
1014.98	2.64417
1017.87	0.822701
1020.76	1.32324
1023.65	1.50881
1026.55	1.41615
1029.44	1.5901
1032.33	2.0624
1035.23	2.34062
1038.12	1.75695
1041.01	2.64455
1043.9	3.47473
1046.8	3.88273
1049.69	3.84295
1052.58	3.46997
1055.47	3.0619
1058.37	2.81449
1061.26	3.28564
1064.15	3.06208
1067.05	1.96951
1069.94	1.37413
1072.83	1.95415
1075.72	1.63117
1078.62	2.00817
1081.51	1.83085
1084.4	1.8173
1087.29	2.46703
1090.19	2.91144
1093.08	2.87404
1095.97	2.93126
1098.87	1.92118
1101.76	2.95222
1104.65	3.60615
1107.54	3.09968
1110.44	4.09365
1113.33	3.3953
1116.22	3.57576
1119.11	3.78884
1122.01	3.11431
1124.9	2.23172
1127.79	1.20173
1130.68	0.555534
1133.58	0.487427
1136.47	0.29525
1139.36	0.163483
1142.26	0.683754
1145.15	0.169643
1148.04	0.463779
1150.93	0.023491
1153.83	0.773453
1156.72	0.094769
1159.61	0.207439
1162.5	0.087948
1165.4	0.008167
1168.29	0.311813
1171.18	0.891541
1174.08	0.43766
1176.97	2.59532
1179.86	2.15906
1182.75	1.23
1185.65	1.01616
