Measurement: Raman, 780 nm, unoriented, Raman Data Processed
Mineral: Uzonite
Rruff sample: R100020
Ideal chemistry: As_4_S_5_
Locality: Lazaresti, Harghita County, Romania
Source: William Pinch
Description: Yellow prismatic crystals associated with isolated red crystals of realgar
Raman shift (cm-1)	intensity
96.4843	0
99.8591	9.60768
103.234	3.16409
106.609	0.603821
109.984	22.585
113.358	56.9672
116.733	73.5367
120.108	81.3102
123.483	101.232
126.858	136.103
130.232	224.181
133.607	255.962
136.982	196.561
140.357	163.634
143.732	188.034
147.107	168.212
150.481	121.258
153.856	103.034
157.231	49.6063
160.606	42.4256
163.981	90.9826
167.355	154.472
170.73	168.193
174.105	147.646
177.48	140.636
180.855	160.428
184.23	201.098
187.604	244.889
190.979	254.436
194.354	212.861
197.729	188.014
201.104	168.047
204.478	152.656
207.853	156.867
211.228	243.003
214.603	316.251
217.978	386.205
221.352	430.957
224.727	432.306
228.102	515.765
231.477	499.413
234.852	278.097
238.227	129.337
241.601	27.7057
244.976	1.72894
248.351	7.11896
251.726	7.58164
255.101	6.5296
258.476	3.08673
261.85	0.793213
265.225	2.06515
268.6	9.93469
271.975	18.3891
275.349	15.9182
278.724	3.64352
282.099	3.80225
285.474	13.1872
288.849	21.1575
292.224	32.963
295.598	46.925
298.973	64.2248
302.348	94.7649
305.723	123.934
309.098	140.709
312.473	150.076
315.847	171.921
319.222	212.408
322.597	287.074
325.972	356.456
329.347	375.146
332.721	398.116
336.096	438.893
339.471	486.802
342.846	469.885
346.221	370.63
349.596	275.761
352.97	200.239
356.345	164.627
359.72	185.236
363.095	175.264
366.47	131.58
369.844	109.707
373.219	91.6434
376.594	80.6817
379.969	77.3519
383.344	68.594
386.719	52.0305
390.093	25.0288
393.468	3.95871
396.843	0.941742
400.218	1.16769
403.593	0.495728
406.967	0.511108
410.342	0.715607
413.717	0.835022
417.092	0.2099
420.467	2.73953
423.841	1.79471
427.216	2.97589
430.591	0.085327
433.966	1.01852
437.341	1.8382
440.716	1.58652
444.09	3.71014
447.465	2.71332
450.84	3.93613
454.215	3.69183
457.59	5.97134
460.964	5.88443
464.339	5.79404
467.714	4.17154
471.089	5.01111
474.464	2.43274
477.839	2.27905
481.213	2.41077
484.588	3.80005
487.963	3.29373
491.338	4.87247
494.713	3.47461
498.087	1.82135
501.462	2.34634
504.837	2.10815
508.212	0.849792
511.587	0.817566
514.962	1.9664
518.336	0.087311
521.711	1.16696
525.086	2.79892
528.461	0.655792
531.836	2.14172
535.21	1.5079
538.585	2.6232
541.96	0.727234
545.335	1.17228
548.71	1.21115
552.085	2.3902
555.459	1.63614
558.834	0.40799
562.209	3.09228
565.584	1.11542
568.959	4.5181
572.333	1.09991
575.708	2.47305
579.083	0.249786
582.458	0.035797
585.833	2.90906
589.207	1.53287
592.582	2.23166
595.957	0.288391
599.332	0.30545
602.707	0.022614
606.082	0.082153
609.456	0.723175
612.831	0.188568
616.206	1.53424
619.581	0.456543
622.956	1.33331
626.331	1.85681
629.705	0.507599
633.08	3.44904
636.455	1.44214
639.83	2.76137
643.205	0.84935
646.579	1.41397
649.954	1.98164
653.329	2.04274
656.704	1.52667
660.079	2.69098
663.453	3.29961
666.828	1.0809
670.203	3.1376
673.578	1.59558
676.953	0.62326
680.328	3.33289
683.702	3.16878
687.077	1.47992
690.452	2.96423
693.827	0.851318
697.202	0.688934
700.577	2.56857
703.951	3.25134
707.326	2.98231
710.701	3.0356
714.076	4.48715
717.451	2.67793
720.825	2.63863
724.2	1.55769
727.575	4.48564
730.95	2.83327
734.325	0.701828
737.699	0.318741
741.074	1.70644
744.449	3.82115
747.824	0.659744
751.199	2.77382
754.573	3.48668
757.948	0.533737
761.323	1.22459
764.698	1.4693
768.073	1.57555
771.448	1.56818
774.822	2.17096
778.197	1.87657
781.572	1.14531
784.947	0.345688
788.322	3.18663
791.697	1.3011
795.071	2.87897
798.446	1.69754
801.821	1.49829
805.196	1.90024
808.571	2.19658
811.945	2.68117
815.32	2.36055
818.695	1.93622
822.07	3.24074
825.445	2.4434
828.819	0.851883
832.194	1.66832
835.569	1.45105
838.944	2.0679
842.319	2.88083
845.694	0.085968
849.068	2.252
852.443	0.15419
855.818	1.26065
859.193	1.21132
862.568	3.16486
865.942	3.41888
869.317	2.02579
872.692	2.18533
876.067	1.4948
879.442	1.75026
882.817	1.22479
886.191	2.57005
889.566	3.3938
892.941	0.24733
896.316	2.28696
899.691	1.05566
903.066	1.01773
906.44	2.12335
909.815	0.724045
913.19	1.57054
916.565	0.829803
919.94	0.103119
923.314	1.27248
926.689	0.698395
930.064	2.31699
933.439	2.27812
936.814	1.76463
940.188	1.61673
943.563	0.1474
946.938	0.386185
950.313	2.29277
953.688	1.81815
957.063	1.43976
960.437	1.06598
963.812	0.734039
967.187	1.98673
970.562	0.72113
973.937	1.37225
977.312	1.90965
980.686	0.781326
984.061	1.37625
987.436	1.29112
990.811	2.61458
994.186	1.01529
997.56	2.50949
1000.93	3.36217
1004.31	1.03798
1007.68	2.45439
1011.06	1.1864
1014.43	0.665466
1017.81	2.95691
1021.18	2.26202
1024.56	2.65292
1027.93	1.10918
1031.31	2.32846
1034.68	1.20877
1038.06	1.15591
1041.43	0.743179
1044.81	4.00568
1048.18	1.87668
1051.56	2.77622
1054.93	4.03612
1058.31	0.600815
1061.68	1.42847
1065.06	0.64415
1068.43	2.04067
1071.81	2.0486
1075.18	0.124298
1078.56	2.80382
1081.93	4.1283
1085.31	2.15825
1088.68	2.40482
1092.06	3.23663
1095.43	1.20132
1098.81	1.70387
1102.18	1.11227
1105.55	2.27513
1108.93	2.66319
1112.3	1.44272
1115.68	0.784225
1119.05	0.913239
1122.43	1.77678
1125.8	1.38205
1129.18	0.778122
1132.55	2.17877
1135.93	3.46005
1139.3	2.26267
1142.68	1.95404
1146.05	0.399292
1149.43	6.73607
1152.8	1.66301
1156.18	0.710907
1159.55	1.46927
1162.93	3.21184
1166.3	2.05682
1169.68	2.37212
1173.05	3.04753
1176.43	1.71024
1179.8	2.53835
1183.17	0.440506
1186.55	0.84166
1189.92	2.42893
1193.3	2.25398
1196.67	2.27959
1200.05	1.85496
1203.42	0.908691
1206.8	2.56636
1210.17	2.35768
1213.55	1.14835
1216.92	1.31303
1220.3	0.130081
1223.67	1.40387
1227.05	0.749146
1230.42	1.14395
1233.8	0.807739
1237.17	0.32959
1240.55	0.776215
1243.92	1.92454
1247.3	0.3172
1250.67	2.68411
1254.05	0.462814
1257.42	3.02176
1260.8	1.43373
1264.17	1.91846
1267.55	0.40744
1270.92	0.763046
1274.3	1.23113
1277.67	1.46397
1281.05	0.257431
1284.42	0.489716
