Measurement: Raman, 532 nm, unoriented, Raman Data Processed
Mineral: Valentinite
Rruff sample: R050389
Ideal chemistry: Sb_2_O_3_
Locality: Bohemia Region, Pribram, Czech Republic
Source: University of Arizona Mineral Museum
Description: Colorless prismatic parallel crystals
Measured chemistry: Sb_2.00_O_3_
Raman shift (cm-1)	intensity
119.352	0
122.245	321.741
125.138	786.842
128.03	1270.49
130.923	1916.94
133.816	2936.46
136.708	4573.78
139.601	7981.98
142.494	7644.41
145.386	3134.41
148.279	1654.52
151.172	999.171
154.065	588.058
156.957	270.063
159.85	90.0853
162.743	13.4048
165.635	75.2074
168.528	95.2695
171.421	78.5871
174.313	67.7837
177.206	24.9573
180.099	62.478
182.992	195.114
185.884	358.287
188.777	505.046
191.67	499.627
194.562	622.081
197.455	970.834
200.348	1447.6
203.24	1976.06
206.133	2655.6
209.026	3612.23
211.918	5011.93
214.811	6812.59
217.704	7152.57
220.596	5838.53
223.489	5000.38
226.382	4358.19
229.275	3303.83
232.167	2122.71
235.06	1256.55
237.953	712.355
240.845	387.325
243.738	247.266
246.631	190.295
249.524	184.148
252.416	227.389
255.309	328.211
258.202	470.743
261.094	643.808
263.987	844.952
266.88	1113.92
269.772	1459.69
272.665	1919.88
275.558	2500.95
278.451	3210.04
281.343	4036.3
284.236	4849.51
287.129	5544.27
290.021	6155.66
292.914	6528.43
295.807	6435.58
298.7	5722.31
301.592	4704.52
304.485	3668.17
307.378	2752.04
310.27	2014.41
313.163	1475.17
316.056	1051.8
318.948	745.981
321.841	511.829
324.734	347
327.627	205.81
330.519	110.731
333.412	44.4094
336.305	0.72821
339.197	28.6876
342.09	37.2305
344.983	37.4989
347.875	30.6592
350.768	20.6658
353.661	13.1136
356.553	7.69257
359.446	1.9042
362.339	2.35617
365.231	0.129333
368.124	1.92813
371.017	1.84561
373.91	2.18817
376.802	9.15009
379.695	10.7926
382.588	18.8488
385.48	19.085
388.373	22.7326
391.266	23.6516
394.159	26.4476
397.051	22.987
399.944	16.4968
402.837	6.60818
405.729	2.60995
408.622	1.42987
411.515	5.05167
414.407	0.258026
417.3	7.91553
420.193	17.2093
423.086	27.9053
425.978	50.598
428.871	67.8316
431.764	95.6439
434.656	118.045
437.549	146.095
440.442	172.025
443.334	167.334
446.227	152.339
449.12	121.9
452.012	96.0402
454.905	79.2397
457.798	89.0676
460.691	121.336
463.583	172.895
466.476	283.873
469.369	446.622
472.261	690.116
475.154	1011.34
478.047	1408.69
480.94	1954.55
483.832	2661.46
486.725	3366.35
489.618	3641.78
492.51	3586.3
495.403	3654.03
498.296	3892.2
501.188	3896.83
504.081	3504.64
506.974	2842.07
509.866	2200.77
512.759	1676.69
515.652	1293.01
518.545	1001.48
521.437	788.744
524.33	618.009
527.223	469.824
530.115	360.572
533.008	251.237
535.901	160.769
538.794	89.392
541.686	36.3118
544.579	1.55432
547.472	17.1483
550.364	31.7855
553.257	21.0073
556.15	6.37463
559.043	26.4935
561.935	61.6879
564.828	118.852
567.721	189.804
570.613	285.02
573.506	416.552
576.399	599.327
579.291	827.196
582.184	1109.66
585.077	1433.36
587.969	1774.33
590.862	2118.73
593.755	2356.21
596.648	2365.33
599.54	2099.16
602.433	1710.61
605.326	1372.74
608.218	1105.38
611.111	860.262
614.004	640.229
616.896	444.959
619.789	290.28
622.682	177.937
625.574	102.496
628.467	46.3172
631.36	15.7043
634.253	0.79306
637.145	9.09009
640.038	13.203
642.931	3.00763
645.823	9.13132
648.716	28.6039
651.609	57.5434
654.501	91.5583
657.394	137.218
660.287	203.028
663.18	282.207
666.072	381.637
668.965	516.627
671.858	678.085
674.75	848.533
677.643	999.25
680.536	1089.98
683.428	1041.04
686.321	869.938
689.214	675.189
692.107	504.012
694.999	368.154
697.892	267.735
700.785	194.091
703.677	143.442
706.57	107.774
709.463	77.1235
712.356	58.4438
715.248	40.4158
718.141	32.086
721.034	19.8778
723.926	13.508
726.819	9.35132
729.712	2.02885
732.604	0.554382
735.497	1.73096
738.39	2.75876
741.283	1.89758
744.175	0.71376
747.068	0.442123
749.961	0.683319
752.853	0.090912
755.746	3.59232
758.639	3.8918
761.531	6.15276
764.424	10.8066
767.317	12.3423
770.21	13.3004
773.102	15.0654
775.995	16.5015
778.888	19.5216
781.78	18.4698
784.673	16.7261
787.566	18.1541
790.458	17.1907
793.351	11.3497
796.244	13.4231
799.136	7.06999
802.029	5.13036
804.922	5.93196
807.815	5.88071
810.707	3.53243
813.6	3.19691
816.493	2.78594
819.385	3.44796
822.278	3.63098
825.171	4.74185
828.063	3.29251
830.956	3.73012
833.849	2.05687
836.742	4.48426
839.634	2.99146
842.527	2.25626
845.42	2.20773
848.312	1.68927
851.205	1.09262
854.098	2.2435
856.99	2.44459
859.883	2.66036
862.776	0.274986
865.669	0.598175
868.561	1.92233
871.454	1.2957
874.347	1.22687
877.239	1.2521
880.132	0.002632
883.025	1.21818
885.918	1.25758
888.81	0.03212
891.703	2.70675
894.596	4.03777
897.488	2.71099
900.381	4.32559
903.274	3.93839
906.166	3.9594
909.059	4.33936
911.952	4.25289
914.845	5.21527
917.737	4.49303
920.63	3.95477
923.523	2.96849
926.415	4.48653
929.308	2.18082
932.201	1.42858
935.093	2.28251
937.986	0.520844
940.879	0.721443
943.771	0.024231
946.664	0.087662
949.557	1.72635
952.45	0.664688
955.342	0.902588
958.235	1.29203
961.128	1.11488
964.02	0.888603
966.913	0.835312
969.806	1.97031
972.698	1.00904
975.591	0.799927
978.484	1.39813
981.377	0.294617
984.269	2.30994
987.162	3.04833
990.055	2.12083
992.947	3.6332
995.84	2.94643
998.733	3.88147
1001.63	3.90807
1004.52	3.4053
1007.41	4.4801
1010.3	6.2512
1013.2	4.09911
1016.09	5.14059
1018.98	3.7514
1021.87	1.74911
1024.77	4.99233
1027.66	4.07686
1030.55	3.43988
1033.44	1.05448
1036.34	2.75143
1039.23	3.22156
1042.12	1.753
1045.02	0.827015
1047.91	0.770618
1050.8	0.946777
1053.69	0.369572
1056.59	1.96236
1059.48	0.669762
1062.37	0.0942
1065.27	0.39109
1068.16	2.17484
1071.05	1.18847
1073.94	0.744808
1076.84	1.45282
1079.73	2.3299
1082.62	2.74704
1085.51	3.67638
1088.41	1.66697
1091.3	3.52067
1094.19	2.66587
1097.09	3.7616
1099.98	3.04324
1102.87	3.53416
1105.76	1.17781
1108.65	2.01361
1111.55	0.483959
1114.44	0.982212
1117.33	1.69361
1120.23	1.21687
1123.12	0.086479
1126.01	0.822582
1128.9	2.57686
1131.8	1.18913
1134.69	0.303192
1137.58	0.472462
1140.47	1.82916
1143.37	0.38319
1146.26	0.74435
1149.15	1.09207
1152.05	0.819572
1154.94	1.80788
1157.83	1.40637
1160.72	2.47135
1163.62	1.02429
1166.51	0.990265
1169.4	1.28897
1172.3	1.15395
1175.19	3.17878
1178.08	1.94161
1180.97	2.62159
1183.87	2.21203
1186.76	2.34198
1189.65	2.95163
1192.54	4.91503
1195.44	3.45697
1198.33	3.46928
1201.22	4.24473
1204.12	2.22828
1207.01	2.37925
1209.9	2.11412
1212.79	2.69373
1215.68	1.64366
1218.58	4.1126
1221.47	1.5626
1224.36	1.60745
1227.26	0.655121
1230.15	1.32012
1233.04	0.828407
1235.93	3.21953
1238.83	1.1457
1241.72	0.802078
1244.61	0.10582
1247.51	1.64311
1250.4	1.6768
1253.29	2.14151
1256.18	1.57618
1259.08	0.470921
1261.97	0.994625
1264.86	1.81317
1267.75	0.0392
1270.65	2.40881
1273.54	0
