Measurement: Raman, 780 nm, unoriented, Raman Data Processed
Mineral: Valentinite
Rruff sample: R120096
Ideal chemistry: Sb_2_O_3_
Locality: China
Source: Rob Lavinsky
Description: Radial spray of pale yellow and colorless bladed crystals
Raman shift (cm-1)	intensity
100.764	0
104.138	237.775
107.513	917.161
110.888	329.548
114.263	2.41528
117.638	680.257
121.013	2570.88
124.388	4759.11
127.762	6822.12
131.137	9399.97
134.512	13347.3
137.887	20598.1
141.262	31197.7
144.636	24064.4
148.011	12235.5
151.386	4812.87
154.761	1907.21
158.136	586.238
161.51	20.6118
164.885	219.058
168.26	206.88
171.635	81.3667
175.01	157.359
178.385	559.049
181.759	1168.44
185.134	2015.73
188.509	2541.06
191.884	1829.37
195.259	1421.96
198.633	1156.89
202.008	1472.18
205.383	2350.95
208.758	3842.54
212.133	6362.4
215.507	9694.31
218.882	8848.73
222.257	5890.32
225.632	4318.33
229.007	2939.79
232.382	1561.81
235.756	683.475
239.131	283.283
242.506	155.337
245.881	282.362
249.256	545.526
252.631	991.731
256.005	1741.5
259.38	2510.53
262.755	3031.12
266.13	3874.2
269.505	5109.69
272.879	6823.07
276.254	9277.4
279.629	12605.8
283.004	16159.3
286.379	16607.8
289.753	16450.4
293.128	16833.4
296.503	16098.1
299.878	13738.5
303.253	10665.7
306.628	7880.12
310.002	5635.58
313.377	3896.46
316.752	2711.21
320.127	1829.77
323.502	1223.41
326.877	813.592
330.251	468.939
333.626	226.591
337.001	93.5581
340.376	0.29541
343.75	28.3669
347.125	49.4199
350.5	56.5048
353.875	55.129
357.25	35.3494
360.625	41.0247
364	41.1588
367.374	42.8046
370.749	32.3873
374.124	37.0061
377.499	15.7633
380.873	11.0913
384.248	7.08008
387.623	10.769
390.998	14.6189
394.373	34.8438
397.748	66.6337
401.122	101.994
404.497	154.692
407.872	219.616
411.247	325.27
414.622	484.248
417.997	701.712
421.371	1002.12
424.746	1410.83
428.121	1968.53
431.496	2577.93
434.871	3259.1
438.245	3891.09
441.62	4331.49
444.995	4172.83
448.37	3300.46
451.745	2261.44
455.12	1490.08
458.494	1005.46
461.869	733.876
465.244	634.898
468.619	700.837
471.994	904.389
475.368	1272.21
478.743	1832.8
482.118	2715.41
485.493	3928.4
488.868	5131.84
492.243	6119.96
495.617	7389.42
498.992	8400.17
502.367	8418.7
505.742	7152.01
509.117	5401.05
512.491	3938.2
515.866	2918.93
519.241	2148.85
522.616	1655.82
525.991	1285.19
529.365	959.436
532.74	619.016
536.115	368.728
539.49	176.385
542.865	29.4688
546.24	53.2887
549.614	68.426
552.989	65.7084
556.364	47.609
559.739	14.4827
563.114	97.7299
566.489	203.984
569.863	367.68
573.238	594.98
576.613	895.904
579.988	1289.49
583.362	1788.31
586.737	2382.87
590.112	2949.41
593.487	3437.01
596.862	3439.1
600.237	2869.41
603.611	2111.41
606.986	1457.41
610.361	1000.78
613.736	667.799
617.111	414.609
620.486	245.474
623.86	135.136
627.235	60.3295
630.61	28.089
633.985	1.41193
637.36	11.5052
640.734	5.70142
644.109	0.247253
647.484	9.06726
650.859	32.9129
654.234	53.2037
657.609	82.5429
660.983	139.003
664.358	202.955
667.733	284.979
671.108	404.855
674.483	519.244
677.857	656.098
681.232	712.293
684.607	676.237
687.982	556.696
691.357	417.576
694.731	301.751
698.106	224.089
701.481	179.901
704.856	149.212
708.231	129.066
711.606	109.546
714.98	93.4599
718.355	80.5353
721.73	65.5701
725.105	53.1924
728.48	38.2027
731.855	40.4688
735.229	27.5272
738.604	16.2102
741.979	14.9437
745.354	14.156
748.729	6.54031
752.103	3.10678
755.478	0.648987
758.853	0.724854
762.228	1.11258
765.603	3.55402
768.977	4.1037
772.352	0.298157
775.727	0.706116
779.102	0.827393
782.477	0.665222
785.852	0.60968
789.226	9.19898
792.601	12.0418
795.976	6.69937
799.351	6.73993
802.726	0.005981
806.101	6.94217
809.475	5.03757
812.85	12.8946
816.225	3.05103
819.6	17.1416
822.975	11.1552
826.349	13.6464
829.724	15.6172
833.099	15.7668
836.474	9.48328
839.849	12.3331
843.223	11.3407
846.598	10.3256
849.973	6.03458
853.348	6.97101
856.723	6.81369
860.097	2.87418
863.472	5.03371
866.847	5.28734
870.222	6.27792
873.597	8.11723
876.972	0.135986
880.346	2.08702
883.721	3.69295
887.096	2.58853
890.471	0.911865
893.846	0.568192
897.221	0.305649
900.595	0.701553
903.97	1.37462
907.345	2.98622
910.72	1.76132
914.095	6.8524
917.469	3.33388
920.844	4.6136
924.219	6.3661
927.594	4.37286
930.969	5.43315
934.343	12.261
937.718	14.7271
941.093	3.90863
944.468	6.00452
947.843	1.86012
951.218	0.966156
954.592	6.97188
957.967	7.79994
961.342	7.5934
964.717	5.40449
968.092	9.19391
971.466	4.87883
974.841	5.64128
978.216	2.84505
981.591	7.5118
984.966	5.45087
988.341	3.70032
991.715	1.03487
995.09	6.96622
998.465	5.7692
1001.84	6.71292
1005.22	5.93553
1008.59	6.44861
1011.96	4.56137
1015.34	8.13937
1018.71	8.85901
1022.09	6.69853
1025.46	9.78902
1028.84	4.75789
1032.21	11.9202
1035.59	12.6814
1038.96	3.87326
1042.34	7.10197
1045.71	2.03537
1049.09	5.42381
1052.46	1.35188
1055.84	5.64719
1059.21	5.28729
1062.59	0.488266
1065.96	4.59436
1069.34	0.522141
1072.71	6.43779
1076.09	4.65442
1079.46	5.12271
1082.84	14.2071
1086.21	8.03746
1089.59	12.2501
1092.96	4.57718
1096.34	7.61415
1099.71	7.33113
1103.08	5.81673
1106.46	6.61185
1109.83	13.9678
1113.21	4.52675
1116.58	6.61128
1119.96	3.04031
1123.33	3.11256
1126.71	7.72923
1130.08	8.33073
1133.46	5.44579
1136.83	1.73033
1140.21	2.24875
1143.58	4.71869
1146.96	2.83061
1150.33	4.09892
1153.71	4.97311
1157.08	1.68225
1160.46	3.42096
1163.83	6.25324
1167.21	5.27724
1170.58	1.29883
1173.96	8.05598
1177.33	7.42029
1180.7	10.8868
1184.08	9.88435
1187.45	10.1942
1190.83	13.371
1194.2	12.5405
1197.58	5.10071
1200.95	7.90735
1204.33	6.68556
1207.7	8.89917
1211.08	9.75586
1214.45	5.46083
1217.83	6.36711
1221.2	5.44559
1224.58	4.53528
1227.95	5.57019
1231.33	6.11394
1234.7	5.11501
1238.08	2.29057
1241.45	1.59869
1244.83	7.7048
1248.2	6.05151
1251.58	6.3661
1254.95	6.33981
1258.33	2.84801
1261.7	3.5836
1265.08	8.61845
1268.45	5.06563
1271.83	2.87003
1275.2	8.5968
1278.58	3.1142
1281.95	3.93471
1285.32	0
