Measurement: Raman, 532 nm, unoriented, Raman Data Processed
Mineral: Valentinite
Rruff sample: R060516
Ideal chemistry: Sb_2_O_3_
Locality: Sombrerete, Zacatecas, Mexico
Source: Michael Scott
Description: Colorless prismatic single crystals, adamantine luster, associated with pyrite and black metallic, elongated jamesonite.
Measured chemistry: Sb_2.00_O_3_
Raman shift (cm-1)	intensity
86.81	0
90.184	160.685
93.559	480.805
96.934	892.271
100.309	870.844
103.684	336.48
107.059	28.797
110.433	311.126
113.808	1172.19
117.183	2141.35
120.558	4668.9
123.933	8634.29
127.307	13556.4
130.682	22026.8
134.057	44369.6
137.432	98286.3
140.807	189055
144.182	96707
147.556	43841.8
150.931	18184.6
154.306	8678.38
157.681	4234.58
161.056	1651.68
164.43	95.343
167.805	1263.09
171.18	1142.27
174.555	132.558
177.93	4060.32
181.305	12245.9
184.679	24386.9
188.054	34553.5
191.429	22068.9
194.804	8238.23
198.179	2451.33
201.553	1928.56
204.928	6662.74
208.303	19944.1
211.678	43749.1
215.053	78515.7
218.428	67072.5
221.802	35725
225.177	21898.2
228.552	12928.1
231.927	6006.4
235.302	1911.83
238.676	31.148
242.051	246.41
245.426	2584.34
248.801	8022.9
252.176	15606.5
255.551	24114
258.925	28831.1
262.3	24287.5
265.675	23556.5
269.05	27864.4
272.425	36166.9
275.799	49091.7
279.174	69056.1
282.549	96999.7
285.924	124004
289.299	148899
292.674	168730
296.048	169535
299.423	148327
302.798	115951
306.173	86131.2
309.548	62473.3
312.922	43420
316.297	29700
319.672	20827.3
323.047	14380.1
326.422	9151.02
329.797	5444.48
333.171	2782.21
336.546	1115.32
339.921	8.802
343.296	441.084
346.671	468.982
350.045	285.096
353.42	146.311
356.795	0.256
360.17	8.681
363.545	43.266
366.919	145.907
370.294	204.788
373.669	161.175
377.044	138.395
380.419	93.406
383.794	25.422
387.168	86.405
390.543	83.399
393.918	174.774
397.293	228.732
400.668	169.078
404.043	5.946
407.417	37.838
410.792	132.733
414.167	393.391
417.542	730.389
420.917	1218.48
424.291	1775.66
427.666	2555.24
431.041	3639.79
434.416	5050.29
437.791	6507.74
441.165	7706.77
444.54	7719.53
447.915	6217.19
451.29	4234.37
454.665	2847
458.04	2047.78
461.414	1837.46
464.789	2011.98
468.164	2845.38
471.539	4331.59
474.914	7140.19
478.289	11241.5
481.663	16970.6
485.038	25102.3
488.413	35297.2
491.788	44992.4
495.163	58375.8
498.537	72178.4
501.912	75634.1
505.287	64517.4
508.662	48776.9
512.037	35815.2
515.412	26403.3
518.786	19809.3
522.161	15167.4
525.536	11987.3
528.911	9040.54
532.286	6496.74
535.661	4239.73
539.035	2600.65
542.41	1343.01
545.785	592.415
549.16	38.467
552.534	297.615
555.909	413.458
559.284	323.578
562.659	49.524
566.034	495.77
569.409	1161.23
572.783	2028.98
576.158	3381.94
579.533	5168.66
582.908	7580.17
586.283	10562.2
589.657	14184.4
593.032	17239.9
596.407	17843.5
599.782	14883.2
603.157	10832.4
606.532	7743.09
609.906	5517.84
613.281	3851.06
616.656	2364.34
620.031	1339.08
623.406	683.12
626.781	300.598
630.155	94.581
633.53	108.512
636.905	122.011
640.28	59.594
643.655	48.351
647.029	152.996
650.404	333.552
653.779	514.871
657.154	775.984
660.529	997.954
663.904	1359.95
667.278	1926.97
670.653	2696.86
674.028	3543.55
677.403	4459.45
680.778	4876.51
684.153	4620.08
687.527	3738.05
690.902	2891.46
694.277	2334.93
697.652	1969.01
701.027	1822.54
704.401	1800.4
707.776	1721.16
711.151	1620.28
714.526	1437.8
717.901	1182.71
721.276	914.462
724.65	656.269
728.025	492.432
731.4	334.406
734.775	149.389
738.149	72.609
741.524	8.412
744.899	13.012
748.274	6.977
751.649	6.08
755.024	12.076
758.398	89.359
761.773	78.172
765.148	167.184
768.523	221.343
771.898	344.007
775.273	335.08
778.647	382.094
782.022	418.647
785.397	416.357
788.772	373.173
792.147	330.796
795.521	269.857
798.896	181.194
802.271	109.938
805.646	97.964
809.021	22.535
812.396	22.949
815.77	6.44
819.145	11.718
822.52	8.894
825.895	13.908
829.27	36.241
832.644	0.395
836.019	35.791
839.394	53.43
842.769	8.336
846.144	63.151
849.519	53.286
852.893	56.935
856.268	37.051
859.643	77.578
863.018	21.941
866.393	10.212
869.768	1.514
873.142	4.632
876.517	10.648
879.892	1.749
883.267	5.718
886.641	61.42
890.016	27.596
893.391	88.894
896.766	133.641
900.141	166.982
903.516	146.011
906.89	163.543
910.265	198.368
913.64	220.475
917.015	180.916
920.39	191.295
923.765	157.754
927.139	168.828
930.514	122.223
933.889	115.394
937.264	97.876
940.639	48.555
944.013	59.515
947.388	27.037
950.763	38.015
954.138	51.342
957.513	3.656
960.888	24.153
964.262	31.262
967.637	19.534
971.012	3.499
974.387	12.303
977.762	4.78
981.136	14.318
984.511	21.69
987.886	12.873
991.261	21.178
994.636	14.933
998.011	5.031
1001.38	18.541
1004.76	29.86
1008.13	51.724
1011.51	46.77
1014.88	52.453
1018.26	43.952
1021.63	7.307
1025.01	44.789
1028.38	46.433
1031.76	24.053
1035.13	30.532
1038.51	11.16
1041.88	30.656
1045.26	27.781
1048.63	15.028
1052.01	0.884
1055.38	20.337
1058.76	20.47
1062.13	12.146
1065.51	7.826
1068.88	37.158
1072.26	1.66
1075.63	43.062
1079.01	68.786
1082.38	71.831
1085.76	45.947
1089.13	110.605
1092.51	106.724
1095.88	131.916
1099.26	137.185
1102.63	118.406
1106.01	121.008
1109.38	101.616
1112.75	94.055
1116.13	89.251
1119.5	64.904
1122.88	50.275
1126.25	40.803
1129.63	30.049
1133	31.478
1136.38	9.183
1139.75	13.947
1143.13	26.338
1146.5	1.88
1149.88	1.41
1153.25	0.676
1156.63	3.148
1160	9.504
1163.38	15.952
1166.75	7.533
1170.13	34.022
1173.5	11.072
1176.88	25.612
1180.25	20.147
1183.62	25.221
1187	39.856
1190.38	32.87
1193.75	22.027
1197.12	47
1200.5	30.513
1203.87	42.603
1207.25	23.516
1210.62	9.904
1214	25.951
1217.37	22.313
1220.75	17.676
1224.12	7.778
1227.5	25.559
1230.87	24.457
1234.25	251.812
1237.62	38.541
1241	30.742
1244.37	14.282
1247.75	30.012
1251.12	34.992
1254.5	10.249
1257.87	12.401
1261.25	9.215
1264.62	9.411
1268	12.043
1271.37	9.469
1274.75	16.757
1278.12	40.418
1281.49	27.785
1284.87	12.269
1288.24	0.737
1291.62	20.042
