Measurement: Raman, 532 nm, unoriented, Raman Data Processed
Mineral: Valentinite
Rruff sample: R120096
Ideal chemistry: Sb_2_O_3_
Locality: China
Source: Rob Lavinsky
Description: Radial spray of pale yellow and colorless bladed crystals
Raman shift (cm-1)	intensity
180.648	0
183.541	741.435
186.433	2320.78
189.326	3257.1
192.219	2091.9
195.112	608.061
198.004	186.034
200.897	72.2178
203.79	492.099
206.682	1602.69
209.575	3481.97
212.468	6785.41
215.36	11058.9
218.253	11957.9
221.146	8676.53
224.038	6391
226.931	4973.24
229.824	3568.3
232.717	2277.73
235.609	1375.21
238.502	923.726
241.395	870.203
244.287	1135.41
247.18	1576.92
250.073	2314.29
252.965	3349.15
255.858	4958.76
258.751	6515.65
261.644	7077.58
264.536	7546.77
267.429	8960.23
270.322	11179.6
273.214	14154.6
276.107	18072.9
279	23330
281.892	29500.6
284.785	34253.7
287.678	36435.2
290.571	38835.1
293.463	40696.5
296.356	39939.4
299.249	36007.4
302.141	30283
305.034	24003.2
307.927	18572.1
310.82	14075.3
313.712	10524.5
316.605	7745.92
319.498	5698.14
322.39	4200.75
325.283	3059.08
328.176	2105.77
331.068	1402.57
333.961	908.31
336.854	535.474
339.747	339.883
342.639	147.101
345.532	82.5762
348.425	34.3101
351.317	36.5986
354.21	1.33106
357.103	0.605957
359.995	23.313
362.888	36.5566
365.781	69.3523
368.673	95.5786
371.566	114.889
374.459	102.525
377.352	91.8227
380.244	92.7214
383.137	75.3281
386.03	60.6697
388.922	57.9119
391.815	48.209
394.708	44.3103
397.601	5.8772
400.493	34.2588
403.386	93.3047
406.279	155.228
409.171	252.279
412.064	396.653
414.957	570.704
417.849	821.027
420.742	1115.79
423.635	1574.12
426.527	2148.7
429.42	2854.66
432.313	3668.83
435.206	4489.82
438.098	5299.54
440.991	5944.9
443.884	6024.1
446.776	5380.84
449.669	4200.26
452.562	3014.98
455.454	2121.77
458.347	1529.86
461.24	1229.07
464.133	1128.36
467.025	1178.42
469.918	1457.64
472.811	1977.55
475.703	2717.25
478.596	3836.56
481.489	5397.17
484.382	7576
487.274	10160.8
490.167	12775
493.06	15448
495.952	18437.2
498.845	20843.5
501.738	21378.4
504.63	19307.6
507.523	15897
510.416	12316.5
513.308	9383.34
516.201	7269.87
519.094	5656.38
521.987	4454.87
524.879	3538.63
527.772	2794.51
530.665	2085.53
533.557	1489.94
536.45	967.362
539.343	564.878
542.236	294.12
545.128	81.5156
548.021	42.7207
550.914	116.049
553.806	140.004
556.699	110.531
559.592	72.7585
562.484	59.7996
565.377	239.116
568.27	427.981
571.163	699.426
574.055	1064.98
576.948	1561.69
579.841	2210.18
582.733	3014.59
585.626	3896.14
588.519	4874.91
591.411	5826.71
594.304	6413.83
597.197	6298.64
600.09	5462.59
602.982	4265.14
605.875	3185.51
608.768	2339.67
611.66	1721.05
614.553	1201.22
617.446	784.629
620.338	493.113
623.231	287.085
626.124	132.038
629.016	70.8125
631.909	16.4407
634.802	17.8145
637.695	23.2983
640.587	34.572
643.48	1.0835
646.373	37.8999
649.265	77.543
652.158	96.0449
655.051	173.266
657.943	216.086
660.836	291.139
663.729	377.123
666.622	490.803
669.514	638.977
672.407	826.408
675.3	1045.7
678.192	1245.11
681.085	1359.85
683.978	1324.27
686.87	1184.26
689.763	962.663
692.656	782.724
695.549	604.765
698.441	479.536
701.334	406.129
704.227	366.044
707.119	333.951
710.012	304.031
712.905	267.376
715.798	243.123
718.69	203.426
721.583	149.838
724.476	148.119
727.368	113.31
730.261	75.592
733.154	64.3962
736.046	35.5137
738.939	16.1621
741.832	13.9619
744.725	4.11694
747.617	6.01221
750.51	2.07812
753.403	13.6875
756.295	5.42773
759.188	3.26562
762.081	3.2959
764.973	8.75708
767.866	24.1306
770.759	17.9734
773.652	33.0764
776.544	33.9951
779.437	24.8267
782.33	37.1069
785.222	27.8462
788.115	21.7739
791.008	35.7744
793.9	27.718
796.793	14.831
799.686	1.42554
802.578	4.80054
805.471	4.77026
808.364	1.35205
811.257	5.45239
814.149	10.6638
817.042	12.9807
819.935	5.51001
822.827	4.66089
825.72	13.6182
828.613	31.8901
831.505	20.3901
834.398	16.6379
837.291	14.1492
840.184	25.0085
843.076	17.439
845.969	23.124
848.862	13.677
851.754	24.8154
854.647	13.8044
857.54	15.6582
860.433	48.1606
863.325	21.7637
866.218	11.8648
869.111	9.49927
872.003	12.1033
874.896	12.3523
877.789	5.68506
880.681	6.04248
883.574	1.03906
886.467	5.1416
889.36	14.9324
892.252	8.96509
895.145	13.7466
898.038	14.9468
900.93	16.3887
903.823	12.1021
906.716	21.9504
909.608	26.2966
912.501	32.9497
915.394	30.2664
918.287	45.9685
921.179	34.2102
924.072	47.9807
926.965	43.3755
929.857	44.8865
932.75	25.0264
935.643	32.865
938.535	10.6299
941.428	31.4607
944.321	20.0456
947.213	19.6196
950.106	12.4329
952.999	15.3511
955.892	17.7993
958.784	16.9351
961.677	2.92993
964.57	2.0415
967.462	8.33032
970.355	3.4331
973.248	0.723389
976.14	15.9358
979.033	9.40454
981.926	3.39233
984.819	2.38135
987.711	0.217041
990.604	4.16479
993.497	19.2436
996.389	11.4888
999.282	2.24634
1002.17	5.29028
1005.07	7.40869
1007.96	23.6081
1010.85	23.6311
1013.75	6.27417
1016.64	6.10449
1019.53	8.36719
1022.42	22.8103
1025.32	9.52905
1028.21	19.3967
1031.1	10.543
1033.99	15.5217
1036.89	19.8225
1039.78	20.4436
1042.67	3.65332
1045.57	16.7227
1048.46	2.92676
1051.35	8.29273
1054.24	18.4836
1057.14	6.44995
1060.03	15.7898
1062.92	0.407959
1065.81	26.0293
1068.71	4.34912
1071.6	5.18213
1074.49	7.06641
1077.38	9.67725
1080.28	4.96948
1083.17	12.6157
1086.06	22.6416
1088.96	13.5515
1091.85	22.0234
1094.74	40.6597
1097.63	13.6931
1100.53	18.8469
1103.42	27.3088
1106.31	44.1189
1109.2	12.8123
1112.1	35.8757
1114.99	25.6655
1117.88	16.3108
1120.78	28.5007
1123.67	3.98853
1126.56	19.9255
1129.45	1.72925
1132.35	0.697266
1135.24	2.7312
1138.13	10.1611
1141.02	1.01587
1143.92	12.5749
1146.81	3.08057
1149.7	14.7144
1152.6	1.08032
1155.49	16.6299
1158.38	10.9153
1161.27	12.0352
1164.17	30.1472
1167.06	5.35986
1169.95	8.51367
1172.84	17.2854
1175.74	20.7175
1178.63	29.561
1181.52	18.7754
1184.41	25.3294
1187.31	28.1206
1190.2	32.4939
1193.09	34.7278
1195.99	2.94824
1198.88	27.2725
1201.77	31.4497
1204.66	30.8962
1207.56	46.9468
1210.45	41.1638
1213.34	29.6282
1216.23	37.2039
1219.13	7.40747
1222.02	17.1487
1224.91	30.8774
1227.81	33.1352
1230.7	13.5415
1233.59	4.58618
1236.48	4.52515
1239.38	7.64502
1242.27	6.08008
1245.16	0.056396
1248.05	1.91284
1250.95	15.0088
1253.84	10.6763
1256.73	25.1265
1259.62	13.1787
1262.52	20.9827
1265.41	23.231
1268.3	18.0581
1271.2	29.4541
1274.09	24.5881
1276.98	20.6296
1279.87	20.2117
1282.77	18.0952
1285.66	36.6047
1288.55	13.5508
1291.44	21.6428
1294.34	31.7646
1297.23	18.1135
1300.12	5.81934
1303.02	0
