Measurement: Raman, 780 nm, unoriented, Raman Data Processed
Mineral: Valentinite
Rruff sample: R050389
Ideal chemistry: Sb_2_O_3_
Locality: Bohemia Region, Pribram, Czech Republic
Source: University of Arizona Mineral Museum
Description: Colorless prismatic parallel crystals
Measured chemistry: Sb_2.00_O_3_
Raman shift (cm-1)	intensity
114.219	0
117.594	25.2256
120.968	227.952
124.343	410.522
127.718	586.872
131.093	866.941
134.468	1157.46
137.842	1668.03
141.217	2583.91
144.592	1613.82
147.967	743.273
151.342	365.568
154.716	153.368
158.091	35.0168
161.466	22.0121
164.841	42.5941
168.216	25.9069
171.591	6.65128
174.965	48.8041
178.34	121.748
181.715	219.794
185.09	348.127
188.465	476.807
191.839	409.475
195.214	321.736
198.589	393.181
201.964	501.152
205.339	721.685
208.714	1023.7
212.088	1419.56
215.463	1923.86
218.838	1862.26
222.213	1330.63
225.588	1044.06
228.962	768.194
232.337	450.668
235.712	197.127
239.087	71.1793
242.462	19.3051
245.837	21.0488
249.211	55.0613
252.586	128.773
255.961	238.051
259.336	364.715
262.711	443.45
266.085	562.405
269.46	768.494
272.835	1040.08
276.21	1398.4
279.585	1828.63
282.959	2318.24
286.334	2770.48
289.709	3138.31
293.084	3381.44
296.459	3288.97
299.834	2850.79
303.208	2213.36
306.583	1630.44
309.958	1158.58
313.333	801.714
316.708	548.541
320.082	363.906
323.457	239.09
326.832	143.834
330.207	78.8718
333.582	31.7138
336.957	3.30627
340.331	11.1237
343.706	12.9834
347.081	15.1819
350.456	10.3764
353.831	8.02231
357.205	3.55623
360.58	2.73837
363.955	0.335449
367.33	1.53795
370.705	0.556549
374.08	2.81435
377.454	1.06869
380.829	4.2814
384.204	6.72672
387.579	5.09798
390.954	6.79953
394.329	10.3896
397.703	11.8556
401.078	13.1967
404.453	10.8997
407.828	11.183
411.202	9.71786
414.577	17.5867
417.952	21.5382
421.327	25.2695
424.702	39.6168
428.077	49.4597
431.451	65.4064
434.826	72.3117
438.201	85.2161
441.576	93.6157
444.951	95.6132
448.325	74.3194
451.7	52.7178
455.075	38.9359
458.45	34.2496
461.825	41.0418
465.2	59.0778
468.574	99.6075
471.949	164.953
475.324	238.614
478.699	345.033
482.074	485.427
485.449	677.585
488.823	834.132
492.198	862.407
495.573	892.316
498.948	963.429
502.323	956.004
505.697	826.916
509.072	632.932
512.447	469.831
515.822	347.154
519.197	269.471
522.572	195.24
525.946	155.835
529.321	115.589
532.696	82.0728
536.071	54.5364
539.446	32.5513
542.82	16.8994
546.195	6.00551
549.57	2.11406
552.945	7.4794
556.32	7.13446
559.694	5.70985
563.069	1.36334
566.444	7.64447
569.819	15.8072
573.194	29.4405
576.568	53.1919
579.943	81.3561
583.318	111.665
586.693	148.681
590.068	183.519
593.443	219.946
596.817	223.766
600.192	206.767
603.567	175.937
606.942	145.471
610.317	120.775
613.692	86.9335
617.066	55.4038
620.441	31.6439
623.816	19.4254
627.191	6.92612
630.566	2.95403
633.94	0.06913
637.315	2.38318
640.69	0.448959
644.065	0.497681
647.44	5.9274
650.814	8.31778
654.189	17.6068
657.564	30.5034
660.939	54.141
664.314	67.3946
667.689	94.9735
671.063	134.494
674.438	164.858
677.813	204.237
681.188	223.714
684.563	210.262
687.938	169.656
691.312	124.736
694.687	88.9785
698.062	62.3325
701.437	46.3356
704.812	34.8923
708.186	27.7895
711.561	19.9799
714.936	17.5171
718.311	15.3375
721.686	11.1793
725.061	7.16859
728.435	6.11355
731.81	3.48139
735.185	2.90268
738.56	3.33241
741.935	2.63033
745.309	0.581379
748.684	0.825638
752.059	0.029776
755.434	1.71219
758.809	0.740597
762.183	0.379084
765.558	0.058371
768.933	1.12318
772.308	2.37816
775.683	1.38849
779.058	0.125439
782.432	1.57981
785.807	0.577787
789.182	0.204559
792.557	1.27515
795.932	0.98172
799.307	0.052961
802.681	1.99872
806.056	1.73187
809.431	0.770882
812.806	1.67726
816.181	0.453283
819.555	2.08471
822.93	1.55903
826.305	2.29241
829.68	0.596731
833.055	1.20281
836.429	0.051804
839.804	0.517946
843.179	0.980112
846.554	2.02723
849.929	2.58256
853.303	1.9825
856.678	1.43611
860.053	1.05783
863.428	1.99017
866.803	2.68745
870.178	0.873549
873.552	1.70487
876.927	2.36172
880.302	0.448143
883.677	0.198895
887.052	1.6988
890.427	0.851892
893.801	2.185
897.176	0.494435
900.551	0.086265
903.926	0.336791
907.301	1.28796
910.675	1.35288
914.05	0.626492
917.425	1.75352
920.8	1.9437
924.175	2.7206
927.549	1.49237
930.924	2.1289
934.299	0.457439
937.674	1.97711
941.049	2.2137
944.423	1.16331
947.798	0.423126
951.173	1.01719
954.548	1.90602
957.923	1.72967
961.298	2.34627
964.672	3.62771
968.047	2.13158
971.422	1.47647
974.797	1.39986
978.172	2.00052
981.547	0.656294
984.921	1.17987
988.296	0.653458
991.671	2.68492
995.046	1.79686
998.421	2.5622
1001.79	2.33256
1005.17	2.73894
1008.54	1.86835
1011.92	2.10463
1015.29	3.72685
1018.67	2.31042
1022.04	2.72299
1025.42	2.01633
1028.79	3.92482
1032.17	2.04604
1035.54	2.33306
1038.92	1.75569
1042.29	3.05413
1045.67	2.58028
1049.04	1.89665
1052.42	0.255154
1055.79	1.10876
1059.17	1.54453
1062.54	0.848609
1065.92	0.44503
1069.29	0.657875
1072.67	0.95515
1076.04	1.35619
1079.42	2.17857
1082.79	2.91449
1086.17	1.12828
1089.54	1.80014
1092.91	2.87747
1096.29	1.53557
1099.66	0.397647
1103.04	2.86369
1106.41	1.73237
1109.79	2.06616
1113.16	2.26028
1116.54	1.04901
1119.91	2.25308
1123.29	2.4348
1126.66	1.98004
1130.04	0.096878
1133.41	1.32051
1136.79	0.87626
1140.16	1.86802
1143.54	1.17795
1146.91	0.410999
1150.29	1.25635
1153.66	2.49887
1157.04	2.009
1160.41	0.555968
1163.79	1.00295
1167.16	2.96139
1170.54	1.14826
1173.91	2.51835
1177.29	1.6571
1180.66	1.22563
1184.04	0.821584
1187.41	2.5746
1190.79	1.01598
1194.16	0.908089
1197.54	1.70796
1200.91	1.47923
1204.28	0.83485
1207.66	2.04209
1211.03	0.586155
1214.41	1.75875
1217.78	0.368967
1221.16	1.13778
1224.53	0.28791
1227.91	1.69545
1231.28	0.755999
1234.66	1.37384
1238.03	1.19828
1241.41	0.520236
1244.78	2.50226
1248.16	3.14455
1251.53	0.300325
1254.91	1.51194
1258.28	0.499907
1261.66	0.44273
1265.03	1.60855
1268.41	0.645796
