Measurement: Raman, 780 nm, unoriented, Raman Data Processed
Mineral: Valentinite
Rruff sample: R060516
Ideal chemistry: Sb_2_O_3_
Locality: Sombrerete, Zacatecas, Mexico
Source: Michael Scott
Description: Colorless prismatic single crystals, adamantine luster, associated with pyrite and black metallic, elongated jamesonite.
Measured chemistry: Sb_2.00_O_3_
Raman shift (cm-1)	intensity
91.5599	0
94.9347	157.436
98.3096	2.91162
101.684	23.9114
105.059	174.168
108.434	626.139
111.809	463.476
115.184	304.727
118.558	740.581
121.933	2178.15
125.308	4376.62
128.683	7349.51
132.058	11062.2
135.433	12863.9
138.807	19722.6
142.182	35268.8
145.557	25533.7
148.932	14177
152.307	5679.94
155.681	2129.27
159.056	570.098
162.431	143.744
165.806	454.544
169.181	415.58
172.555	73.7676
175.93	433.196
179.305	1378.93
182.68	2936.5
186.055	5420.17
189.43	7947
192.804	6058.01
196.179	3111.52
199.554	2250.84
202.929	2536.5
206.304	3692.51
209.678	5915.95
213.053	9865.52
216.428	16169.3
219.803	16363.5
223.178	10513.2
226.553	7636.55
229.927	5469.46
233.302	3149.3
236.677	1472.06
240.052	652.744
243.427	514.359
246.801	841.661
250.176	1574.01
253.551	2930.32
256.926	5433.34
260.301	7796.76
263.675	6794.48
267.05	5916.17
270.425	6711.04
273.8	8633.81
277.175	11623.2
280.55	15798.8
283.924	21131.4
287.299	25956.1
290.674	30136.3
294.049	33687
297.424	34277.8
300.798	30516.8
304.173	24186.3
307.548	17865.7
310.923	12737.9
314.298	8883.27
317.673	6044.44
321.047	4060.91
324.422	2674.72
327.797	1688.04
331.172	957.634
334.547	408.607
337.921	91.3809
341.296	109.12
344.671	165.806
348.046	175.746
351.421	156.154
354.796	112.514
358.17	64.4434
361.545	33.9392
364.92	26.1719
368.295	21.5068
371.67	0.800293
375.044	15.0222
378.419	36.2734
381.794	57.2075
385.169	87.9817
388.544	95.9468
391.918	121.041
395.293	132.502
398.668	154.103
402.043	164.046
405.418	135.963
408.793	118.016
412.167	114.658
415.542	158.624
418.917	205.428
422.292	297.029
425.667	422.749
429.041	590.982
432.416	816.37
435.791	1089.84
439.166	1373.29
442.541	1654
445.915	1699.42
449.29	1417.75
452.665	998.204
456.04	644.425
459.415	465.009
462.789	399.94
466.164	455.291
469.539	652.811
472.914	997.665
476.289	1495.61
479.664	2255.61
483.038	3412.76
486.413	5052.25
489.788	6881.18
493.163	8264.4
496.538	9875.1
499.913	11758.6
503.287	12554.5
506.662	11225.9
510.037	8738.37
513.412	6458.09
516.787	4808.85
520.161	3670.1
523.536	2840.88
526.911	2217.57
530.286	1718.38
533.661	1274.31
537.035	876.998
540.41	553.617
543.785	305.908
547.16	139.439
550.535	21.5066
553.909	46.6067
557.284	94.8535
560.659	90.3308
564.034	56.9758
567.409	12.0679
570.784	120.98
574.158	268.741
577.533	501.713
580.908	822.064
584.283	1242.89
587.658	1741.18
591.033	2363.94
594.407	2956.12
597.782	3218.78
601.157	2827.9
604.532	2121.15
607.907	1520.79
611.281	1100.16
614.656	761.41
618.031	472.703
621.406	253.207
624.781	121.665
628.155	44.8973
631.53	3.87341
634.905	15.16
638.28	14.6984
641.655	0.363403
645.029	13.2837
648.404	37.0863
651.779	62.6639
655.154	100.429
658.529	156.428
661.904	213.451
665.278	306.687
668.653	434.485
672.028	594.664
675.403	791.732
678.778	1015.92
682.153	1173.53
685.527	1165.71
688.902	991.452
692.277	752.064
695.652	577.963
699.027	452.182
702.401	373.163
705.776	336.118
709.151	316.597
712.526	295.104
715.901	264.937
719.275	229.985
722.65	189.256
726.025	154.036
729.4	124.311
732.775	107.771
736.149	81.4561
739.524	63.4087
742.899	48.0312
746.274	38.0477
749.649	27.4255
753.024	22.9297
756.398	15.536
759.773	11.7224
763.148	0.843109
766.523	0.959076
769.898	12.3858
773.273	11.5591
776.647	0.796173
780.022	2.68982
783.397	0.378967
786.772	7.04068
790.146	5.54181
793.521	1.92599
796.896	2.73932
800.271	3.55493
803.646	1.20483
807.021	1.31796
810.395	0.830414
813.77	0.898438
817.145	2.39768
820.52	5.44067
823.895	6.62518
827.269	1.26502
830.644	6.17584
834.019	5.237
837.394	5.97232
840.769	6.42129
844.144	9.72552
847.518	8.88324
850.893	14.8086
854.268	12.6692
857.643	11.7637
861.018	8.44723
864.393	12.3763
867.767	10.1675
871.142	10.6216
874.517	3.26535
877.892	3.92276
881.266	3.40533
884.641	1.6833
888.016	0.773972
891.391	3.83108
894.766	0.105179
898.141	1.58771
901.515	0.075302
904.89	0.2995
908.265	2.66139
911.64	1.707
915.015	4.72366
918.389	2.68111
921.764	1.41426
925.139	3.51834
928.514	0.630783
931.889	0.409409
935.264	0.421112
938.638	2.58635
942.013	2.94078
945.388	1.72493
948.763	2.27725
952.138	0.156769
955.512	2.82442
958.887	3.57518
962.262	4.3093
965.637	4.2822
969.012	4.5995
972.386	3.55748
975.761	6.01851
979.136	2.04948
982.511	4.99083
985.886	5.58534
989.261	5.48276
992.635	5.27212
996.01	3.98198
999.385	7.27724
1002.76	4.112
1006.13	5.47783
1009.51	6.59677
1012.88	5.84799
1016.26	6.0275
1019.63	6.52571
1023.01	7.41818
1026.38	7.21289
1029.76	2.83595
1033.13	4.5159
1036.51	2.57149
1039.88	5.89496
1043.26	5.10782
1046.63	4.94943
1050.01	6.98409
1053.38	0.987625
1056.76	3.1044
1060.13	1.05182
1063.51	1.14229
1066.88	2.26862
1070.26	1.05017
1073.63	5.72739
1077.01	2.86479
1080.38	4.69923
1083.76	7.3558
1087.13	7.63052
1090.51	9.18106
1093.88	10.0315
1097.26	11.0446
1100.63	11.1342
1104	10.4047
1107.38	10.7658
1110.75	11.6879
1114.13	9.79927
1117.5	8.38307
1120.88	3.22691
1124.25	4.62384
1127.63	2.6452
1131	3.49876
1134.38	3.18635
1137.75	0.470192
1141.13	0.109947
1144.5	1.32232
1147.88	4.48919
1151.25	1.9035
1154.63	2.13229
1158	1.22649
1161.38	0.263725
1164.75	0.210625
1168.13	1.12875
1171.5	0.519875
1174.88	5.1276
1178.25	4.8303
1181.62	7.35836
1185	4.4301
1188.38	5.73769
1191.75	6.22797
1195.12	4.87491
1198.5	5.70563
1201.87	4.68576
1205.25	4.07548
1208.62	5.31816
1212	5.57268
1215.37	1.16
1218.75	1.58927
1222.12	0.835411
1225.5	2.54577
1228.87	0.957367
1232.25	2.56432
1235.62	2.52785
1239	2.19044
1242.37	4.41175
1245.75	3.17422
1249.12	5.25407
1252.5	3.85805
1255.87	3.60055
1259.25	3.66039
1262.62	3.12775
1265.99	4.16637
1269.37	0.465385
1272.74	4.9871
1276.12	3.23531
1279.49	3.72874
1282.87	0.846024
