Measurement: Raman, 514 nm, unoriented, Raman Data Processed
Mineral: Valentinite
Rruff sample: R050389
Ideal chemistry: Sb_2_O_3_
Locality: Bohemia Region, Pribram, Czech Republic
Source: University of Arizona Mineral Museum
Description: Colorless prismatic parallel crystals
Measured chemistry: Sb_2.00_O_3_
Raman shift (cm-1)	intensity
54.266	0
58.464	124.57
62.661	52.667
66.856	38.974
71.048	26.993
75.239	332.726
79.427	605.019
83.614	835.324
87.798	1066.64
91.981	1325.87
96.161	1643.73
100.34	2175.34
104.516	2994.58
108.691	3277.67
112.864	2504.37
117.034	2493.72
121.203	2893
125.369	4258.67
129.534	8248.29
133.696	22113.5
137.857	48388
142.016	55083.4
146.172	31321.2
150.327	13761.9
154.48	6600.49
158.63	3864.24
162.779	2499.91
166.926	1763.58
171.07	1464.33
175.213	1486.21
179.354	1908.24
183.493	2783.44
187.63	3462.8
191.765	3632.3
195.898	3658.93
200.029	4166.66
204.158	6617.47
208.285	13433.3
212.41	26468.3
216.533	35274.2
220.654	30541
224.773	23010.1
228.891	17050.9
233.006	12289.8
237.119	9029.14
241.231	7127.8
245.34	6273.44
249.448	6038.8
253.553	6505.26
257.657	7433.66
261.758	8439.22
265.858	9633.25
269.956	11595.6
274.052	14380.3
278.146	18830.1
282.237	25025
286.327	30306.8
290.416	34682.7
294.502	36295.4
298.586	33927
302.668	27629.4
306.749	21202.6
310.827	15779.6
314.903	11222.2
318.978	8234.49
323.051	6223.38
327.121	4656.88
331.19	3449.97
335.257	2609.64
339.322	2174.89
343.385	1712.69
347.446	1460.04
351.505	1240.92
355.563	1059.33
359.618	788.242
363.672	616.202
367.723	476.56
371.773	312.937
375.821	208.779
379.866	92.074
383.91	29.168
387.952	148.902
391.992	227.415
396.031	304.045
400.067	296.124
404.101	302.723
408.134	188.703
412.165	161.452
416.193	94.162
420.22	102.262
424.245	248.229
428.268	645.805
432.289	1166.98
436.309	1855.82
440.326	2553.26
444.342	2867.29
448.355	2720.97
452.367	2136.27
456.377	1656.17
460.385	1606.67
464.391	1851.69
468.395	2311.26
472.398	3121.3
476.398	4486.87
480.397	7086.97
484.394	10948.5
488.389	15027.6
492.382	18978.8
496.373	23368
500.362	26762.3
504.349	25705
508.335	20969.1
512.319	15935.5
516.3	12242.3
520.28	9638.34
524.259	7810.75
528.235	6214.48
532.209	5145.51
536.182	4193.84
540.152	3421.49
544.121	2938.94
548.088	2598.74
552.053	2409.47
556.017	2434.53
559.978	2676.46
563.938	3112.79
567.895	3569.68
571.851	4355.71
575.805	5433.02
579.758	7053.53
583.708	9521.28
587.657	12893.5
591.603	17297.8
595.548	19374.5
599.491	17924.7
603.432	14065.5
607.372	10008.4
611.309	7028.5
615.245	4875.83
619.179	3336.8
623.111	2241.88
627.041	1545.13
630.97	1061.47
634.896	771.898
638.821	571.503
642.744	433.552
646.665	367.864
650.584	349.964
654.502	394.903
658.418	406.953
662.331	570.795
666.244	894.173
670.154	1195.67
674.062	1813.82
677.969	2544.17
681.874	3036.56
685.777	2942.56
689.678	2195.98
693.577	1493.25
697.475	1019.23
701.371	714.208
705.265	429.053
709.157	370.823
713.047	169.625
716.936	231.137
720.823	103.145
724.708	92.568
728.591	73.192
732.472	42.242
736.352	13.017
740.23	18.567
744.106	32.344
747.98	7.818
751.853	56.614
755.723	26.854
759.592	67.293
763.459	69.173
767.325	76.668
771.188	5.227
775.05	50.525
778.91	22.877
782.768	16.131
786.625	3.083
790.479	53.924
794.332	50.557
798.183	50.025
802.033	21.205
805.88	106.044
809.726	12.78
813.57	60.96
817.413	67.133
821.253	106.909
825.092	137.6
828.929	98.648
832.764	153.296
836.598	142.578
840.429	105.605
844.259	69.251
848.088	89.495
851.914	87.234
855.739	153.804
859.562	119.834
863.383	205.683
867.203	110.969
871.02	167.816
874.836	108.247
878.65	164.223
882.463	192.76
886.274	175.865
890.083	176.458
893.89	172.432
897.695	182.228
901.499	210.966
905.301	173.176
909.102	161.534
912.9	183.203
916.697	171.614
920.492	182.59
924.285	146.281
928.077	177.833
931.867	181.707
935.655	195.705
939.442	209.687
943.226	90.656
947.009	148.167
950.791	130.303
954.57	125.611
958.348	162.703
962.124	156.986
965.899	157.265
969.671	117.736
973.442	154.15
977.211	154.449
980.979	206.413
984.745	193.103
988.509	217.724
992.271	147.571
996.032	202.699
999.791	181.211
1003.55	141.809
1007.3	185.282
1011.06	96.794
1014.81	155.623
1018.56	137.906
1022.31	206.355
1026.06	197.334
1029.8	199.809
1033.55	177.665
1037.29	103.098
1041.03	230.886
1044.77	189.233
1048.5	126.609
1052.24	107.879
1055.97	121.601
1059.7	161.914
1063.43	133.624
1067.16	50.053
1070.89	50.871
1074.61	98.113
1078.34	72.465
1082.06	46.5
1085.78	115.235
1089.5	68.288
1093.21	15.76
1096.93	79.524
1100.64	50.25
1104.35	84.928
1108.06	94.543
1111.77	25.168
1115.48	39.712
1119.18	20.153
1122.89	82.507
1126.59	66.928
1130.29	41.787
1133.99	2.637
1137.68	1.893
1141.38	4.926
1145.07	54.69
1148.76	15.84
1152.45	21.485
1156.14	2.769
1159.83	49.753
1163.51	22.882
1167.19	31.856
1170.88	96.775
1174.56	0.6
1178.23	43.367
1181.91	10.038
1185.59	52.482
1189.26	65.053
1192.93	17.54
1196.6	3.963
1200.27	6.376
1203.94	27.785
1207.6	60.169
1211.27	40.248
1214.93	37.024
1218.59	12.71
1222.25	13.144
1225.9	80.954
1229.56	36.852
1233.21	35.938
1236.86	2.311
1240.51	53.174
1244.16	120.887
1247.81	55.523
1251.45	118.179
1255.1	62.031
1258.74	43.36
1262.38	101.728
1266.02	81.01
1269.66	172.279
1273.29	101.658
1276.93	97.033
1280.56	101.079
1284.19	139.965
1287.82	125.233
1291.45	82.938
1295.07	76.417
1298.7	85.276
1302.32	166.775
1305.94	158.451
1309.56	216.613
1313.18	154.475
1316.8	231.43
1320.41	165.395
1324.02	222.354
1327.63	251.148
1331.24	291.85
1334.85	300.308
1338.46	302.871
1342.06	317.263
1345.67	253.842
1349.27	448.628
1352.87	388.535
1356.47	439.326
1360.07	362.292
1363.66	284.666
1367.25	328.419
1370.85	375.712
1374.44	402.773
1378.03	429.894
1381.61	350.487
1385.2	342.202
1388.78	275.598
1392.37	306.986
1395.95	299.364
1399.53	254.744
1403.1	310.156
1406.68	244.722
1410.26	239.589
1413.83	285.628
1417.4	234.759
1420.97	280.988
1424.54	251.427
1428.1	233.021
1431.67	173.719
1435.23	228.498
1438.8	223.363
1442.36	227.291
1445.91	175.218
1449.47	91.238
1453.03	181.319
1456.58	147.507
1460.13	157.867
1463.68	48.436
1467.23	33.241
1470.78	111.277
1474.33	154.635
1477.87	98.047
1481.42	103.794
1484.96	112.816
1488.5	119.17
1492.04	34.928
1495.57	205.158
1499.11	22.08
1502.64	7.299
1506.17	0.572
1509.71	125.313
1513.23	114.181
1516.76	7.302
1520.29	154.597
1523.81	0.154
