Measurement: Raman, 532 nm, unoriented, Raman Data Processed
Mineral: Vanadinite
Rruff sample: R050376
Ideal chemistry: Pb_5_(VO_4_)_3_Cl
Locality: Morocco
Source: Eugene Schlepp
Description: Red hoppered crystal
Measured chemistry: Pb_5.00_(V_1.00_O_4_)_3_Cl_1.00_
Raman shift (cm-1)	intensity
148.279	0
151.172	9.41992
154.065	31.602
156.957	26.7268
159.85	53.068
162.743	90.2411
165.635	173.473
168.528	251.648
171.421	320.092
174.313	384.212
177.206	459.248
180.099	514.89
182.992	528.17
185.884	491.069
188.777	432.323
191.67	362.037
194.562	270.515
197.455	186.178
200.348	115.935
203.24	36.6825
206.133	0.327087
209.026	17.0142
211.918	6.92267
214.811	22.3117
217.704	13.7526
220.597	17.5933
223.489	5.46881
226.382	19.8796
229.275	0.04187
232.167	0.7229
235.06	4.2829
237.953	11.2908
240.845	7.8175
243.738	0.95813
246.631	8.92529
249.524	1.96643
252.416	12.0953
255.309	18.2353
258.202	46.6852
261.094	72.3905
263.987	110.84
266.88	171.707
269.772	266.974
272.665	388.959
275.558	551.289
278.451	736.688
281.343	969.979
284.236	1219.23
287.129	1482.01
290.021	1622.69
292.914	1604.39
295.807	1573.19
298.7	1726.11
301.592	2156.07
304.485	2818.88
307.378	3734.57
310.27	4739.69
313.163	6019.77
316.056	7546.21
318.948	9051.52
321.841	9493.87
324.734	8235.56
327.627	6284.83
330.519	4747.58
333.412	3580.13
336.305	2719.95
339.197	2180.88
342.09	1988.13
344.983	2104.36
347.875	2499.02
350.768	3026
353.661	3138.85
356.553	2667.88
359.446	2203.03
362.339	2004.49
365.232	1759.36
368.124	1168.66
371.017	600.444
373.91	265.441
376.802	76.0275
379.695	9.39087
382.588	49.2653
385.481	57.9884
388.373	28.0304
391.266	5.04535
394.159	69.8589
397.051	119.914
399.944	150.955
402.837	223.871
405.729	299.598
408.622	410.535
411.515	519.766
414.408	527.202
417.3	402.279
420.193	251.571
423.086	139.494
425.978	71.3416
428.871	39.9976
431.764	18.0876
434.656	7.31393
437.549	3.09311
440.442	1.9241
443.334	3.3641
446.227	15.5403
449.12	7.35089
452.013	0.171509
454.905	0.953857
457.798	4.96643
460.691	8.99625
463.583	19.6154
466.476	22.0636
469.369	25.0404
472.262	30.4348
475.154	40.6121
478.047	41.2459
480.94	50.2482
483.832	52.634
486.725	59.0665
489.618	62.7829
492.51	66.9679
495.403	59.4895
498.296	55.2962
501.188	53.5147
504.081	43.099
506.974	35.4559
509.867	29.2554
512.759	27.4833
515.652	18.9552
518.545	13.4872
521.437	13.879
524.33	14.1511
527.223	11.5053
530.115	8.73874
533.008	6.76617
535.901	6.31151
538.794	10.129
541.686	8.91659
544.579	5.41428
547.472	5.85681
550.364	3.97575
553.257	0.633438
556.15	4.29669
559.043	0.996918
561.935	3.34276
564.828	5.23492
567.721	6.67029
570.613	11.0563
573.506	12.4922
576.399	16.7293
579.291	22.4933
582.184	29.947
585.077	29.7115
587.97	36.945
590.862	45.6019
593.755	53.9897
596.648	63.3135
599.54	67.5892
602.433	75.0459
605.326	83.498
608.218	90.63
611.111	102.061
614.004	108.292
616.896	116.468
619.789	123.25
622.682	130.774
625.575	143.314
628.467	153.856
631.36	166.286
634.253	182.778
637.145	196.002
640.038	213.397
642.931	225.53
645.823	224.922
648.716	216.423
651.609	197.712
654.502	188.716
657.394	173.367
660.287	155.776
663.18	139.53
666.072	113.631
668.965	104.847
671.858	88.6117
674.75	69.2632
677.643	48.6823
680.536	33.5463
683.429	15.9846
686.321	17.2291
689.214	1.36896
692.107	12.1195
694.999	26.9106
697.892	36.5074
700.785	26.9119
703.678	3.37311
706.57	31.7147
709.463	98.9497
712.356	204.852
715.248	325.338
718.141	436.465
721.034	521.667
723.926	465.688
726.819	348.752
729.712	213.017
732.605	101.905
735.497	13.4385
738.39	53.2263
741.283	84.2195
744.175	80.1506
747.068	43.2671
749.961	54.1823
752.853	190.025
755.746	371.252
758.639	640.584
761.532	1005.45
764.424	1488.95
767.317	2106.84
770.21	2879.09
773.102	3829.81
775.995	4977.49
778.888	6195.66
781.78	7406.7
784.673	8332.3
787.566	8883.53
790.458	8921.19
793.351	8750.14
796.244	8589.58
799.137	8707.78
802.029	9245.11
804.922	10127.2
807.815	11462
810.707	13207.1
813.6	15267.5
816.493	17436.5
819.385	19472.3
822.278	20818.2
825.171	20736.2
828.064	19134.8
830.956	16244
833.849	12930.3
836.742	9889.25
839.634	7337.28
842.527	5417.92
845.42	3929.17
848.312	2873.8
851.205	2074.39
854.098	1495.17
856.991	1086.35
859.883	768.057
862.776	508.009
865.669	348.687
868.561	223.298
871.454	136.417
874.347	63.5251
877.24	16.6476
880.132	29.631
883.025	35.9876
885.918	54.6871
888.81	62.3295
891.703	55.9421
894.596	55.3542
897.488	37.2377
900.381	12.6385
903.274	7.37952
906.167	11.1385
909.059	40.3136
911.952	70.1025
914.845	89.8054
917.737	112.442
920.63	137.519
923.523	134.725
926.415	141.309
929.308	152.15
932.201	161.128
935.093	176.1
937.986	188.748
940.879	196.036
943.772	194.043
946.664	189.417
949.557	180.527
952.45	159.63
955.342	150.431
958.235	136.299
961.128	122.687
964.02	112.953
966.913	107.097
969.806	100.112
972.699	94.7555
975.591	93.5755
978.484	90.5291
981.377	83.4737
984.269	80.5346
987.162	73.8211
990.055	66.3764
992.947	61.3081
995.84	53.4925
998.733	46.9025
1001.63	36.8124
1004.52	36.3297
1007.41	28.3878
1010.3	25.1188
1013.2	22.5533
1016.09	19.4293
1018.98	15.4089
1021.88	11.9227
1024.77	9.56297
1027.66	10.0699
1030.55	10.0065
1033.44	8.30884
1036.34	9.24232
1039.23	8.88931
1042.12	5.88576
1045.02	5.57504
1047.91	1.5807
1050.8	4.15106
1053.69	2.2413
1056.59	1.27141
1059.48	1.60045
1062.37	1.46524
1065.27	0.873352
1068.16	0.654602
1071.05	7.17624
1073.94	2.84528
1076.84	13.4247
1079.73	17.293
1082.62	17.682
1085.51	19.5216
1088.41	18.4579
1091.3	15.6323
1094.19	15.1189
1097.09	8.37654
1099.98	9.24277
1102.87	9.69013
1105.76	7.56993
1108.66	4.23392
1111.55	3.78169
1114.44	0.606064
1117.33	5.67123
1120.23	0.45546
1123.12	6.12192
1126.01	6.84381
1128.9	7.3817
1131.8	9.84274
1134.69	8.2388
1137.58	9.57922
1140.47	2.69487
1143.37	7.78693
1146.26	4.43733
1149.15	1.56811
1152.05	0.498749
1154.94	0.915558
1157.83	2.64374
1160.72	0.573822
1163.62	2.65089
1166.51	2.87932
1169.4	1.30943
1172.3	1.96252
1175.19	6.72021
1178.08	5.47307
1180.97	6.15927
1183.87	8.09177
1186.76	12.5778
1189.65	9.57883
1192.54	10.7706
1195.44	14.4671
1198.33	13.6883
1201.22	16.5037
1204.12	15.115
1207.01	14.142
1209.9	12.4036
1212.79	10.8873
1215.68	9.70588
1218.58	9.28477
1221.47	7.35377
1224.36	4.52616
1227.26	6.89949
1230.15	1.8259
1233.04	2.68256
1235.93	2.0944
1238.83	0.725899
1241.72	0.333168
1244.61	1.02356
1247.51	2.35662
1250.4	1.4938
1253.29	3.61461
1256.18	5.28223
1259.08	7.59592
1261.97	9.35638
1264.86	10.9195
1267.75	12.8353
1270.65	15.8278
1273.54	10.6123
1276.43	9.11424
1279.33	11.341
1282.22	7.92224
1285.11	8.87278
1288	5.86764
1290.9	5.29033
1293.79	4.84049
1296.68	3.33074
1299.57	1.95915
1302.47	1.49354
