Measurement: Raman, 780 nm, unoriented, Raman Data Processed
Mineral: Vanadinite
Rruff sample: R050189
Ideal chemistry: Pb_5_(VO_4_)_3_Cl
Locality: Puzzler mine, Yuma County, Arizona, USA
Source: Dave Bunk Minerals
Description: Red and green hexagonal prisms
Measured chemistry: Pb_5.00_(V_1.00_O_4_)_3_Cl_1.00_
Raman shift (cm-1)	intensity
144.552	0
147.445	32.9844
150.338	56.7431
153.23	72.0412
156.123	27.5215
159.016	3.82027
161.909	59.3591
164.801	106.383
167.694	207.006
170.587	311.167
173.479	471.524
176.372	598.9
179.265	680.063
182.157	663.655
185.05	581.603
187.943	468.029
190.835	352.53
193.728	252.072
196.621	159.183
199.514	67.5924
202.406	60.4759
205.299	52.7542
208.192	50.0972
211.084	43.1736
213.977	26.0857
216.87	28.7233
219.762	20.2857
222.655	5.95482
225.548	2.61305
228.441	4.53478
231.333	11.6007
234.226	8.78051
237.119	18.3083
240.011	8.39743
242.904	13.6722
245.797	12.7164
248.69	18.2199
251.582	17.573
254.475	6.17715
257.368	33.3738
260.26	51.3459
263.153	113.407
266.046	210.792
268.938	394.754
271.831	610.628
274.724	861.268
277.616	1179.42
280.509	1660.59
283.402	2226.28
286.295	2855.77
289.187	3181.67
292.08	2886.59
294.973	2275.82
297.865	1827.2
300.758	1710.08
303.651	1810.8
306.543	2102.13
309.436	2538.67
312.329	3280.34
315.221	4346.01
318.114	5565.28
321.007	6254.06
323.9	5496.52
326.792	3832.81
329.685	2525.61
332.578	1674.87
335.47	1125.24
338.363	828.497
341.256	770.259
344.149	940.988
347.041	1301.91
349.934	1708.43
352.827	2193.21
355.719	2607.3
358.612	3184.59
361.505	4153.3
364.397	4708.05
367.29	3622.13
370.183	2034.48
373.075	1039.49
375.968	499.94
378.861	224.196
381.754	39.2651
384.646	41.4973
387.539	33.6151
390.432	8.87384
393.324	9.13295
396.217	5.46343
399.11	8.69908
402.002	2.61556
404.895	12.96
407.788	25.6959
410.681	86.6999
413.573	125.041
416.466	129.622
419.359	140.497
422.251	168.177
425.144	174.466
428.037	228.327
430.93	262.433
433.822	300.101
436.715	350.794
439.608	395.179
442.5	397.26
445.393	381.438
448.286	371.978
451.178	355.303
454.071	327.811
456.964	270.366
459.856	243.029
462.749	192.815
465.642	146.531
468.535	111.44
471.427	81.4291
474.32	59.5588
477.213	32.5333
480.105	18.6297
482.998	8.59742
485.891	2.12554
488.783	7.06778
491.676	8.6024
494.569	1.49827
497.462	4.60852
500.354	1.11054
503.247	3.39929
506.14	2.6008
509.032	4.18455
511.925	15.7214
514.818	13.5717
517.71	25.991
520.603	28.3227
523.496	19.0892
526.389	22.0326
529.281	43.6225
532.174	28.5731
535.067	33.7409
537.959	34.3718
540.852	40.0447
543.745	29.8304
546.638	23.8553
549.53	22.5152
552.423	16.1087
555.316	13.9365
558.208	7.46907
561.101	6.31036
563.994	1.93183
566.886	12.4262
569.779	5.50352
572.672	5.55714
575.564	8.76938
578.457	8.13149
581.35	15.6887
584.243	21.8287
587.135	33.7479
590.028	32.9774
592.921	35.054
595.813	38.6406
598.706	43.4552
601.599	51.6968
604.491	74.276
607.384	70.9269
610.277	81.8053
613.169	96.162
616.062	103.737
618.955	127.028
621.848	117.871
624.74	145.326
627.633	136.24
630.526	148.242
633.418	140.531
636.311	129.398
639.204	136.559
642.096	120.505
644.989	118.522
647.882	105.931
650.775	82.0666
653.667	57.0136
656.56	59.9708
659.453	39.7146
662.345	30.1767
665.238	10.382
668.131	1.23063
671.024	2.64966
673.916	3.64671
676.809	4.49531
679.702	15.1619
682.594	7.91409
685.487	6.12083
688.38	33.6915
691.272	43.6687
694.165	74.0074
697.058	107.548
699.951	149.362
702.843	176.944
705.736	228.476
708.629	285.428
711.521	374.761
714.414	477.592
717.307	566.753
720.199	624.673
723.092	572.636
725.985	421.516
728.877	254.793
731.77	123.096
734.663	25.3396
737.556	24.1585
740.448	5.85466
743.341	15.8517
746.234	3.34233
749.126	21.538
752.019	53.2017
754.912	24.128
757.804	32.5041
760.697	120.986
763.59	202.43
766.482	333.742
769.375	486.577
772.268	694.319
775.161	948.022
778.053	1274.27
780.946	1574.49
783.839	1924.61
786.731	2268.3
789.624	2552.98
792.517	2730.32
795.409	2950.52
798.302	3260.62
801.195	3685.39
804.088	4335.16
806.98	5235.68
809.873	6284.03
812.766	7451.16
815.658	8756.91
818.551	10134.9
821.444	11292.6
824.337	11891.5
827.229	11572
830.122	10232.3
833.015	8329.71
835.907	6364.75
838.8	4768.44
841.693	3477.29
844.585	2555.15
847.478	1880.35
850.371	1367.87
853.264	997.307
856.156	732.72
859.049	532.719
861.942	365.451
864.834	260.13
867.727	181.151
870.62	109.779
873.512	64.2533
876.405	27.6286
879.298	2.38663
882.191	15.2316
885.083	35.2016
887.976	35.5621
890.869	14.2895
893.761	11.6897
896.654	7.36749
899.547	7.61028
902.439	13.3147
905.332	12.9734
908.225	6.7566
911.117	8.77451
914.01	11.5036
916.903	25.368
919.796	41.9754
922.688	52.2868
925.581	41.9552
928.474	51.1581
931.366	60.3707
934.259	66.984
937.152	77.209
940.044	78.4093
942.937	76.1064
945.83	73.4665
948.723	74.3297
951.615	72.8683
954.508	67.6832
957.401	60.7717
960.293	56.4583
963.186	50.549
966.079	44.4217
968.971	34.5028
971.864	31.3699
974.757	31.2724
977.65	25.0229
980.542	31.9723
983.435	22.4536
986.328	22.5513
989.22	13.6261
992.113	11.9676
995.006	13.4709
997.899	9.47817
1000.79	4.29167
1003.68	5.58567
1006.58	1.8706
1009.47	6.25126
1012.36	3.01269
1015.25	3.94129
1018.15	3.00514
1021.04	4.11553
1023.93	3.20722
1026.83	6.80269
1029.72	6.23225
1032.61	6.87611
1035.5	9.21137
1038.4	1.83708
1041.29	4.27356
1044.18	4.21444
1047.07	7.20284
1049.97	10.3328
1052.86	13.291
1055.75	21.9283
1058.64	23.5071
1061.54	19.9352
1064.43	31.8805
1067.32	33.6836
1070.22	42.2066
1073.11	45.1102
1076	59.1743
1078.89	66.4509
1081.79	77.6283
1084.68	81.6572
1087.57	100.22
1090.46	101.011
1093.36	111.308
1096.25	121.978
1099.14	129.386
1102.04	146.193
1104.93	147.152
1107.82	165.802
1110.71	169.789
1113.61	178.929
1116.5	178.109
1119.39	199.242
1122.29	206.256
1125.18	222.75
1128.07	229.352
1130.96	242.414
1133.86	271.408
1136.75	296.652
1139.64	307.827
1142.53	324.298
1145.43	330.81
1148.32	326.616
1151.21	317.77
1154.1	298.985
1157	280.686
1159.89	249.867
1162.78	210.11
1165.67	185.858
1168.57	152.727
1171.46	122.308
1174.35	96.0241
1177.25	71.1068
1180.14	24.0356
1183.03	15.1323
1185.92	1.83383
1188.82	4.57825
1191.71	24.7905
1194.6	20.4856
1197.49	15.8116
1200.39	7.41991
1203.28	4.29717
1206.17	33.6809
1209.07	61.9771
1211.96	20.1831
1214.85	0.483246
