Measurement: Raman, 514 nm, unoriented, Raman Data Processed
Mineral: Vanadinite
Rruff sample: R050171
Ideal chemistry: Pb_5_(VO_4_)_3_Cl
Locality: Hamburg mine, La Paz County, Arizona, USA
Source: Marcus Origlieri
Description: Red prismatic hexagonal crystals
Measured chemistry: Pb_5.00_((V_0.89_As_0.11_)O_4_)_3_Cl_1.00_
Raman shift (cm-1)	intensity
52.866	0
57.065	47.11
61.262	16.207
65.458	62.592
69.651	293.097
73.842	1003
78.031	2231.12
82.218	3207.04
86.404	3382.38
90.587	3128.54
94.768	2955.46
98.947	2782.28
103.124	2662.14
107.3	2610.16
111.473	2605.99
115.644	2862.37
119.813	3080.09
123.981	3547.01
128.146	4204.02
132.309	4711.05
136.47	5261.95
140.63	5402.68
144.787	5032.24
148.942	4490.05
153.096	3796.2
157.247	3240.31
161.396	2682.42
165.544	2234.55
169.689	2023.66
173.833	1769.73
177.974	1483.72
182.114	1328.65
186.251	1047.52
190.387	801.416
194.52	639.384
198.652	481.442
202.782	389.544
206.909	282.636
211.035	176.657
215.159	117.528
219.281	62.607
223.4	18.074
227.518	23.381
231.634	27.186
235.748	73.984
239.86	8.207
243.97	21.922
248.079	112.217
252.185	204.547
256.289	338.82
260.391	523.945
264.492	826.842
268.59	1394.42
272.687	2215.62
276.781	3623.36
280.874	5891.6
284.964	8489.31
289.053	9768.43
293.14	8456.92
297.225	6038.76
301.308	4069.91
305.389	2818.68
309.468	2370.57
313.545	2343.07
317.62	2654.31
321.693	2533.45
325.765	2089.39
329.834	1639.01
333.902	1433.22
337.967	1448.46
342.031	1779.43
346.093	2231.82
350.153	3179.4
354.21	4841.71
358.267	8336.06
362.321	11577.5
366.373	10356.9
370.423	6515.24
374.471	3870.6
378.518	2532.84
382.563	1785.54
386.605	1381.88
390.646	1108.1
394.685	975.843
398.722	852.915
402.757	772.712
406.79	725.75
410.821	623.119
414.851	451.872
418.878	312.089
422.904	246.236
426.927	186.861
430.949	155.474
434.969	138.888
438.987	103.247
443.003	63.863
447.018	73.079
451.03	35.799
455.041	7.314
459.049	19.628
463.056	4.281
467.061	4.557
471.064	5.143
475.065	24.543
479.064	10.427
483.062	19.939
487.057	7.696
491.051	29.855
495.043	16.447
499.032	25.264
503.02	17.021
507.007	19.016
510.991	19.496
514.973	8.51
518.954	8.931
522.933	28.88
526.91	14.364
530.885	9.335
534.858	12.781
538.829	18.749
542.799	12.21
546.766	1.857
550.732	16.557
554.696	20.486
558.658	11.903
562.618	7.788
566.576	10.863
570.533	6.915
574.488	25.135
578.44	17.836
582.391	27.987
586.341	2.419
590.288	1.555
594.233	36.133
598.177	6.472
602.119	14.614
606.059	35.439
609.997	40.021
613.933	27.37
617.868	32.491
621.801	65.048
625.731	84.67
629.66	69.943
633.588	93.138
637.513	70.776
641.437	88.387
645.358	83.422
649.278	66.729
653.196	81.679
657.113	98.236
661.027	99.151
664.94	114.024
668.851	131.795
672.76	178.589
676.667	222.552
680.572	280.151
684.476	332.046
688.378	407.25
692.278	524.894
696.176	621.451
700.072	854.353
703.967	1123.29
707.86	1611.32
711.751	2054.74
715.64	2626.96
719.527	2870.21
723.413	2564.27
727.297	2002.41
731.179	1447.95
735.059	1254.71
738.937	1083.52
742.814	1065.45
746.689	1145.28
750.562	1218.44
754.433	1531.68
758.303	1784.54
762.17	2134.2
766.036	2662.09
769.901	3453.15
773.763	4378.4
777.624	5567.84
781.482	7010.48
785.339	8782.32
789.195	10823.4
793.048	13008.7
796.9	15481.3
800.75	19127.2
804.598	23982.4
808.445	29766.9
812.289	36934.7
816.132	45877.9
819.973	55053.4
823.813	61193.2
827.65	58951.4
831.486	51642
835.32	41058.9
839.152	31387.3
842.983	23011.9
846.812	17226
850.639	13278
854.464	10367.8
858.288	8250.41
862.11	6789.42
865.93	5575.06
869.748	4663.63
873.564	3920.93
877.379	3322.82
881.192	2798.91
885.004	2379.44
888.813	2090.89
892.621	1814.54
896.427	1547.15
900.232	1353.6
904.034	1229.9
907.835	1101.87
911.634	980.895
915.432	861.066
919.227	754.237
923.021	653.653
926.813	551.96
930.604	473.474
934.393	415.194
938.18	365.121
941.965	305.25
945.749	227.577
949.53	192.097
953.311	191.813
957.089	147.715
960.866	128.794
964.641	114.148
968.414	88.472
972.185	72.424
975.955	54.797
979.723	32.678
983.49	28.702
987.254	21.861
991.017	5.141
994.779	16.465
998.538	20.984
1002.3	42.813
1006.05	28.947
1009.81	43.434
1013.56	43.959
1017.31	20.565
1021.06	25.239
1024.81	39.977
1028.55	18.812
1032.3	31.739
1036.04	17.768
1039.78	19.882
1043.52	6.081
1047.26	8.343
1050.99	11.677
1054.73	1.013
1058.46	9.502
1062.19	15.975
1065.92	29.424
1069.65	22.236
1073.37	67.065
1077.1	76.018
1080.82	67.959
1084.54	97.239
1088.26	86.747
1091.97	72.17
1095.69	91.621
1099.4	79.335
1103.12	84.933
1106.83	106.057
1110.54	116.061
1114.24	107.461
1117.95	115.351
1121.65	112.717
1125.35	116.299
1129.06	115.043
1132.75	142.002
1136.45	149.44
1140.15	144.436
1143.84	145.163
1147.53	155.103
1151.22	142.245
1154.91	148.397
1158.6	134.566
1162.28	124.867
1165.97	136.006
1169.65	122.027
1173.33	120.829
1177.01	119.123
1180.69	95.617
1184.36	67.344
1188.04	82.35
1191.71	82.458
1195.38	69.656
1199.05	30.107
1202.71	61.753
1206.38	53.936
1210.04	36.687
1213.71	24.3
1217.37	20.581
1221.03	29.131
1224.68	33.679
1228.34	16.167
1231.99	3.407
1235.65	5.469
1239.3	14.348
1242.95	15.216
1246.59	5.852
1250.24	16.252
1253.88	9.455
1257.53	4.575
1261.17	6.537
1264.81	21.231
1268.45	24.223
1272.08	16.22
1275.72	3.51
1279.35	7.693
1282.98	20.748
1286.61	22.602
1290.24	24.327
1293.87	5.951
1297.49	4.424
1301.11	4.859
1304.73	14.12
1308.36	10.405
1311.97	17.538
1315.59	23.591
1319.2	29.58
1322.82	29.522
1326.43	31.424
1330.04	40.261
1333.65	21.076
1337.26	34.801
1340.86	38.428
1344.47	31.93
1348.07	21.445
1351.67	27.912
1355.27	41.247
1358.87	31.345
1362.46	43.093
1366.06	27.827
1369.65	31.204
1373.24	38.134
1376.83	37.584
1380.42	45.003
1384	25.659
1387.59	29.954
1391.17	29.335
1394.75	41.436
1398.33	33.92
1401.91	35.325
1405.49	25.788
1409.06	24.617
1412.64	33.397
1416.21	18.864
1419.78	21.086
1423.35	20.318
1426.91	15.248
1430.48	11.181
1434.05	19.432
1437.61	21.89
1441.17	16.709
1444.73	16.573
1448.29	15.88
1451.84	44.326
1455.4	27.654
1458.95	24.884
1462.5	27.404
1466.05	18.903
1469.6	22.357
1473.15	3.716
1476.69	7.878
1480.24	12.104
1483.78	12.095
1487.32	4.309
1490.86	21.588
1494.39	11.171
1497.93	15.69
1501.46	13.945
1505	11.618
1508.53	25.667
1512.06	19.523
1515.59	4.611
1519.11	24.184
1522.64	0.476
