Measurement: Raman, 780 nm, unoriented, Raman Data Processed
Mineral: Vanadinite
Rruff sample: R050376
Ideal chemistry: Pb_5_(VO_4_)_3_Cl
Locality: Morocco
Source: Eugene Schlepp
Description: Red hoppered crystal
Measured chemistry: Pb_5.00_(V_1.00_O_4_)_3_Cl_1.00_
Raman shift (cm-1)	intensity
148.449	0
151.342	7.28992
154.234	20.1101
157.127	20.2273
160.02	19.0532
162.912	41.3496
165.805	78.2545
168.698	120.483
171.591	158.202
174.483	202.915
177.376	252.54
180.269	287.169
183.161	276.868
186.054	250.805
188.947	188.865
191.839	137.692
194.732	94.2479
197.625	58.6062
200.518	24.3714
203.41	2.43076
206.303	24.6502
209.196	21.1543
212.088	14.9049
214.981	12.8163
217.874	8.06473
220.766	3.04428
223.659	3.08426
226.552	0.949524
229.445	5.29568
232.337	7.28186
235.23	20.6689
238.123	9.802
241.015	10.7633
243.908	13.38
246.801	15.285
249.694	23.2509
252.586	27.9257
255.479	40.3575
258.372	59.0748
261.264	85.5671
264.157	126.727
267.05	192.566
269.942	291.218
272.835	419.697
275.728	569.997
278.62	751.889
281.513	966.323
284.406	1210.62
287.299	1386.95
290.191	1419.01
293.084	1244.36
295.977	1009.41
298.869	860.878
301.762	845.864
304.655	935.98
307.548	1102.35
310.44	1349.68
313.333	1664.27
316.226	2058.3
319.118	2392.94
322.011	2425.54
324.904	2002.25
327.796	1400.12
330.689	935.645
333.582	641.031
336.474	470.16
339.367	390.486
342.26	412.21
345.152	526.825
348.045	720.232
350.938	929.742
353.831	1142.93
356.723	1375.42
359.616	1673.96
362.509	1975.3
365.401	1929.69
368.294	1342.66
371.187	738.598
374.079	388.759
376.972	203.941
379.865	104.696
382.758	46.429
385.65	10.3707
388.543	6.61023
391.436	15.1818
394.328	14.5242
397.221	12.2225
400.114	11.2063
403.007	8.06313
405.899	8.98009
408.792	6.51967
411.685	13.6268
414.577	10.7017
417.47	0.868332
420.363	3.46336
423.255	6.35225
426.148	5.2644
429.041	5.04048
431.933	2.38403
434.826	6.33398
437.719	10.5908
440.612	15.9473
443.504	21.9313
446.397	26.2322
449.29	28.9826
452.182	31.8319
455.075	34.6343
457.968	36.666
460.861	38.39
463.753	41.3018
466.646	44.1278
469.539	47.6968
472.431	50.8709
475.324	52.4678
478.217	52.5309
481.109	49.9994
484.002	47.3604
486.895	44.2102
489.788	41.1403
492.68	38.2162
495.573	34.7883
498.466	33.4005
501.358	31.0033
504.251	28.4932
507.144	27.4858
510.036	25.3268
512.929	23.5308
515.822	22.755
518.715	20.7437
521.607	20.5238
524.5	18.8612
527.393	18.0818
530.285	16.633
533.178	13.7993
536.071	12.8785
538.963	11.3829
541.856	10.7659
544.749	9.17036
547.641	8.35494
550.534	6.11202
553.427	6.23459
556.32	5.55457
559.212	4.73172
562.105	3.89607
564.998	3.70767
567.89	2.80149
570.783	3.77595
573.676	2.65907
576.568	2.27677
579.461	1.41859
582.354	2.66378
585.247	2.09569
588.139	1.86213
591.032	2.63084
593.925	2.82975
596.817	2.6974
599.71	3.88659
602.603	4.49761
605.495	5.82713
608.388	6.90583
611.281	7.7798
614.174	8.82189
617.066	9.32035
619.959	10.842
622.852	12.3061
625.744	14.2379
628.637	13.3986
631.53	14.2544
634.423	13.8058
637.315	12.8338
640.208	12.35
643.101	11.4447
645.993	10.1814
648.886	8.79951
651.779	5.75277
654.671	4.81155
657.564	3.44415
660.457	2.90914
663.35	1.07694
666.242	0.420559
669.135	0.543453
672.028	0.970123
674.92	1.33418
677.813	0.966812
680.706	1.1121
683.598	2.89555
686.491	9.02952
689.384	17.4329
692.277	26.0927
695.169	32.5561
698.062	41.5805
700.955	53.6821
703.847	74.1659
706.74	99.4627
709.633	131.925
712.525	165.463
715.418	199.9
718.311	225.285
721.203	226.57
724.096	190.014
726.989	131.523
729.882	75.8737
732.774	36.4721
735.667	8.93558
738.56	5.41777
741.452	16.7494
744.345	19.3086
747.238	15.6678
750.13	9.18423
753.023	5.16789
755.916	20.144
758.809	44.4755
761.701	71.9984
764.594	112.4
767.487	162.921
770.379	228.135
773.272	299.834
776.165	396.357
779.058	508.306
781.95	626.311
784.843	742.514
787.736	845.861
790.628	941.322
793.521	1032.15
796.414	1153.74
799.306	1304.7
802.199	1520.96
805.092	1803.03
807.985	2181.89
810.877	2614.38
813.77	3116.74
816.663	3636.97
819.555	4109.95
822.448	4438.98
825.341	4475.18
828.233	4177.47
831.126	3587.38
834.019	2887.77
836.912	2233.51
839.804	1684.69
842.697	1268.82
845.59	950.183
848.482	715.142
851.375	541.725
854.268	409.073
857.16	310.856
860.053	237.119
862.946	178.426
865.838	135.044
868.731	101.529
871.624	71.6318
874.517	53.5159
877.409	36.3495
880.302	21.1335
883.195	10.0733
886.087	2.34969
888.98	3.84752
891.873	7.28418
894.765	9.00621
897.658	9.41025
900.551	10.0048
903.444	8.67635
906.336	5.44124
909.229	2.03087
912.122	1.72679
915.014	5.54234
917.907	11.3404
920.8	16.1135
923.692	14.2206
926.585	9.90926
929.478	8.39608
932.37	9.661
935.263	11.8768
938.156	13.6794
941.049	16.6044
943.941	19.4017
946.834	22.4155
949.727	23.6045
952.619	23.6574
955.512	22.803
958.405	20.9825
961.298	17.5753
964.19	16.1113
967.083	12.7707
969.976	11.8793
972.868	12.8429
975.761	12.9985
978.654	12.889
981.546	13.8627
984.439	13.1708
987.332	12.795
990.225	10.8711
993.117	10.2747
996.01	9.34801
998.903	8.38685
1001.79	7.60187
1004.69	7.37872
1007.58	5.1132
1010.47	5.20579
1013.37	4.86354
1016.26	4.3605
1019.15	2.85375
1022.04	2.53613
1024.94	2.55392
1027.83	2.6577
1030.72	1.97534
1033.62	1.42325
1036.51	1.68144
1039.4	1.66409
1042.29	1.66733
1045.19	1.63874
1048.08	1.51915
1050.97	0.086327
1053.86	0.154942
1056.76	0.379585
1059.65	0.214512
1062.54	0.157932
1065.43	0.632977
1068.33	0.486107
1071.22	0.203465
1074.11	0.997559
1077.01	0.01144
1079.9	1.28623
1082.79	1.33482
1085.68	1.45378
1088.58	1.26338
1091.47	1.39807
1094.36	1.27588
1097.25	8.09917
1100.15	0.849808
1103.04	0.205841
1105.93	0.116581
1108.83	0.032722
1111.72	0.599636
1114.61	0.118786
1117.5	0.763306
1120.4	0.292027
1123.29	1.15059
1126.18	0.54937
1129.07	1.58369
1131.97	0.58234
1134.86	1.08217
1137.75	1.05705
1140.64	1.37766
1143.54	0.819004
1146.43	0.549263
1149.32	0.909966
1152.22	0.026165
1155.11	0.8055
1158	0.051645
1160.89	1.05693
1163.79	0.179672
1166.68	0.417841
1169.57	0.761665
1172.46	1.70244
1175.36	1.03265
1178.25	1.15175
1181.14	1.1505
1184.04	1.30703
1186.93	0.756872
1189.82	1.25697
1192.71	1.03102
1195.61	0.603456
1198.5	1.47178
1201.39	1.07807
1204.28	0.922361
1207.18	0.253214
1210.07	0.203348
1212.96	0.418324
1215.86	0.888865
1218.75	0.876652
1221.64	0.359386
1224.53	0.314743
1227.43	0.311935
1230.32	0.435207
1233.21	0.157169
1236.1	0.363342
1239	1.83041
1241.89	2.16431
1244.78	1.64531
1247.67	2.51542
1250.57	2.75739
1253.46	4.01038
1256.35	3.43013
1259.25	4.81221
1262.14	4.33916
1265.03	4.24923
1267.92	3.89248
1270.82	2.69022
1273.71	2.31084
1276.6	1.54337
1279.49	0.694763
1282.39	0.08741
1285.28	0.006287
