Measurement: Raman, 532 nm, unoriented, Raman Data Processed
Mineral: Vanadinite
Rruff sample: R050189
Ideal chemistry: Pb_5_(VO_4_)_3_Cl
Locality: Puzzler mine, Yuma County, Arizona, USA
Source: Dave Bunk Minerals
Description: Red and green hexagonal prisms
Measured chemistry: Pb_5.00_(V_1.00_O_4_)_3_Cl_1.00_
Raman shift (cm-1)	intensity
145.362	0
148.737	86.2769
152.112	115.055
155.486	82.5027
158.861	58.0354
162.236	64.1218
165.611	142.803
168.986	272.938
172.36	405.718
175.735	542.664
179.11	670.846
182.485	747.445
185.86	721.419
189.234	595.374
192.609	452.159
195.984	328.426
199.359	180.608
202.734	61.6885
206.109	11.2218
209.483	17.1179
212.858	34.4501
216.233	27.1528
219.608	21.5781
222.983	19.4175
226.357	6.76013
229.732	6.98828
233.107	2.47302
236.482	6.05658
239.857	10.2668
243.232	6.8855
246.606	2.3443
249.981	11.5162
253.356	12.5227
256.731	29.7515
260.106	50.267
263.48	90.9216
266.855	121.529
270.23	193.315
273.605	319.746
276.98	487.117
280.354	746.852
283.729	1112.13
287.104	1601.1
290.479	1894.16
293.854	1857.82
297.229	1797.15
300.603	2011.7
303.978	2640.01
307.353	3677.48
310.728	5112.22
314.103	7280.4
317.478	10262.8
320.852	13182.3
324.227	12849.1
327.602	9569.82
330.977	6849.94
334.352	4985.53
337.726	3449.11
341.101	2606.17
344.476	2466.06
347.851	2995.22
351.226	4056.3
354.601	4558.83
357.975	3626.7
361.35	2760.13
364.725	2485.24
368.1	1794.2
371.474	900.704
374.849	372.91
378.224	111.742
381.599	20.5576
384.974	74.088
388.349	64.1526
391.723	3.88611
395.098	80.9578
398.473	137.362
401.848	175.955
405.223	314.377
408.598	502.105
411.972	761.01
415.347	853.79
418.722	636.789
422.097	376.231
425.472	194.491
428.846	105.884
432.221	51.5034
435.596	26.2592
438.971	8.03058
442.346	2.13135
445.721	18.5096
449.095	10.8207
452.47	11.7709
455.845	0.707031
459.22	2.07224
462.595	8.94199
465.969	12.6596
469.344	24.828
472.719	30.1425
476.094	42.4395
479.469	47.4505
482.844	58.183
486.218	63.1669
489.593	70.7173
492.968	76.7562
496.343	78.2623
499.718	75.0158
503.092	65.1504
506.467	44.2092
509.842	44.628
513.217	31.0622
516.592	30.5918
519.966	17.7735
523.341	14.6776
526.716	13.015
530.091	10.5172
533.466	4.58756
536.841	7.67175
540.215	4.268
543.59	4.62851
546.965	3.3232
550.34	4.21745
553.715	4.59665
557.089	1.24434
560.464	0.191971
563.839	1.99873
567.214	4.55966
570.589	5.56155
573.963	8.45532
577.338	14.3499
580.713	19.9922
584.088	24.8322
587.463	32.7534
590.838	46.7557
594.212	56.4342
597.587	64.9063
600.962	83.6821
604.337	87.0807
607.712	103.653
611.087	113.485
614.461	122.842
617.836	136.227
621.211	143.235
624.586	155.594
627.961	168.915
631.335	185.065
634.71	203.91
638.085	222.471
641.46	251.668
644.835	277.649
648.21	288.975
651.584	276.252
654.959	252.061
658.334	235.356
661.709	209.289
665.084	184.964
668.458	162.347
671.833	137.28
675.208	107.282
678.583	87.2536
681.958	61.5675
685.332	43.1095
688.707	24.7812
692.082	1.42526
695.457	22.4599
698.832	54.7126
702.207	51.9413
705.581	30.2465
708.956	31.7812
712.331	166.259
715.706	349.124
719.081	583.244
722.455	736.061
725.83	650.035
729.205	424.971
732.58	236.152
735.955	86.6538
739.33	22.0199
742.704	84.3595
746.079	92.4702
749.454	17.3896
752.829	129.275
756.204	380.518
759.578	709.694
762.953	1195.52
766.328	1880.1
769.703	2742.02
773.078	3982.52
776.452	5530.18
779.827	7320.48
783.202	9270.65
786.577	10973.9
789.952	11841.1
793.327	11777
796.701	11303.9
800.076	11119.9
803.451	11586.7
806.826	12817.8
810.201	14881
813.575	17715.5
816.95	21103.1
820.325	24620.1
823.7	27209.4
827.075	27203.1
830.449	23745.3
833.824	18538.7
837.199	13306.7
840.574	9263.06
843.949	6330.5
847.324	4307.7
850.698	2964.52
854.073	1985.43
857.448	1355.77
860.823	895.062
864.198	574.511
867.572	358.158
870.947	208.274
874.322	85.4094
877.697	10.7612
881.072	28.0033
884.447	57.9132
887.821	58.4234
891.196	64.1514
894.571	59.1757
897.946	34.9362
901.321	11.4606
904.696	7.69653
908.07	36.6921
911.445	68.8607
914.82	92.2253
918.195	127.837
921.57	156.646
924.944	175.585
928.319	183.873
931.694	196.791
935.069	218.601
938.444	236.811
941.818	247.138
945.193	233.625
948.568	228.612
951.943	211.074
955.318	194.418
958.692	170.687
962.067	153.115
965.442	138.864
968.817	133.256
972.192	123.661
975.567	119.186
978.941	109.389
982.316	107.608
985.691	97.1738
989.066	90.4832
992.441	81.1792
995.816	64.7991
999.19	57.256
1002.57	48.3262
1005.94	40.1891
1009.32	32.5762
1012.69	24.8567
1016.06	19.0528
1019.44	18.2366
1022.81	16.513
1026.19	9.68668
1029.56	12.9577
1032.94	14.7214
1036.31	8.81703
1039.69	10.6763
1043.06	7.25333
1046.44	8.68965
1049.81	4.66087
1053.19	5.40552
1056.56	0.430878
1059.94	0.31105
1063.31	6.69966
1066.69	2.08682
1070.06	1.01442
1073.44	10.1387
1076.81	15.276
1080.19	17.8297
1083.56	25.253
1086.94	24.8161
1090.31	24.4701
1093.68	22.1501
1097.06	17.3612
1100.43	13.123
1103.81	9.55615
1107.18	3.69658
1110.56	5.78146
1113.93	2.89748
1117.31	8.43152
1120.68	2.83925
1124.06	7.09746
1127.43	6.13052
1130.81	9.14804
1134.18	9.02109
1137.56	8.4845
1140.93	8.22665
1144.31	9.42052
1147.68	5.80281
1151.06	3.01704
1154.43	5.98645
1157.81	6.14461
1161.18	2.09189
1164.56	3.72404
1167.93	0.902802
1171.31	1.27914
1174.68	2.02258
1178.06	3.70106
1181.43	4.67963
1184.81	10.5354
1188.18	9.30965
1191.56	15.8548
1194.93	15.9633
1198.3	17.9283
1201.68	19.8933
1205.05	18.4626
1208.43	14.9497
1211.8	14.897
1215.18	14.6364
1218.55	10.1484
1221.93	8.75916
1225.3	11.548
1228.68	6.27988
1232.05	0.800591
1235.43	2.62798
1238.8	2.17581
1242.18	0.930031
1245.55	0.38092
1248.93	1.10734
1252.3	2.79723
1255.68	3.65207
1259.05	6.30051
1262.43	8.174
1265.8	12.7075
1269.18	15.7982
1272.55	14.7083
1275.92	14.7272
1279.3	11.8699
1282.67	9.91975
1286.05	10.1545
1289.42	7.0423
1292.8	5.39553
1296.17	4.69644
1299.55	3.21288
1302.92	0.580456
