Measurement: Raman, 780 nm, unoriented, Raman Data Processed
Mineral: Vanadinite
Rruff sample: R050533
Ideal chemistry: Pb_5_(VO_4_)_3_Cl
Locality: Ahumada mine, Los Lamentos, Mexico
Source: University of Arizona Mineral Museum
Description: Greenish-brown hexagonal prisms
Measured chemistry: Pb_5.00_((V_0.95_As_0.05_)O_4_)_3_Cl_1.00_
Raman shift (cm-1)	intensity
144.446	0
147.338	6.58026
150.231	7.63629
153.124	8.97824
156.016	9.604
158.909	11.446
161.802	16.1933
164.694	24.5788
167.587	30.7063
170.48	43.5905
173.373	60.4544
176.265	73.1968
179.158	79.1079
182.051	72.1505
184.943	62.852
187.836	46.3719
190.729	32.016
193.621	23.9223
196.514	11.4894
199.407	1.4639
202.299	4.38461
205.192	3.56372
208.085	3.83089
210.978	2.88725
213.87	2.65776
216.763	2.52504
219.656	0.536499
222.548	1.6627
225.441	0.338531
228.334	0.071213
231.226	1.84403
234.119	0.909073
237.012	1.4023
239.905	1.64276
242.797	1.2693
245.69	2.39566
248.583	4.33174
251.475	5.54308
254.368	9.34567
257.261	13.7284
260.154	20.0994
263.046	32.6177
265.939	51.1463
268.832	82.8589
271.724	123.767
274.617	167.749
277.51	219.113
280.402	281.758
283.295	345.658
286.188	404.735
289.08	424.559
291.973	389.305
294.866	320.531
297.759	265.272
300.651	243.798
303.544	251.333
306.437	277.718
309.329	325.881
312.222	392.223
315.115	468.166
318.007	541.605
320.9	561.238
323.793	476.162
326.686	343.246
329.578	229.245
332.471	154.721
335.364	115.643
338.256	103.208
341.149	111.639
344.042	146.605
346.935	205.468
349.827	269.255
352.72	334.77
355.613	408.036
358.505	501.354
361.398	591.175
364.291	603.744
367.183	468.179
370.076	290.47
372.969	168.924
375.861	96.2001
378.754	55.6945
381.647	30.4074
384.54	14.2285
387.432	5.93767
390.325	0.715149
393.218	0.708359
396.11	2.42789
399.003	3.01117
401.896	0.971558
404.788	2.18071
407.681	0.01976
410.574	0.353821
413.467	0.987457
416.359	2.45126
419.252	3.05478
422.145	1.57941
425.037	1.16844
427.93	0.748505
430.823	0.494476
433.716	1.39685
436.608	2.40456
439.501	3.89871
442.394	5.85503
445.286	7.28438
448.179	7.95859
451.072	9.48315
453.964	11.2924
456.857	12.5279
459.75	12.9067
462.642	14.3899
465.535	14.2357
468.428	15.5155
471.321	16.1476
474.213	17.4375
477.106	15.8576
479.999	15.1364
482.891	14.597
485.784	13.9778
488.677	13.8595
491.57	12.2568
494.462	12.0888
497.355	11.9912
500.248	10.8391
503.14	10.3038
506.033	9.99448
508.926	8.40511
511.818	7.44411
514.711	7.23636
517.604	8.01541
520.496	6.43192
523.389	7.01573
526.282	6.14145
529.175	6.85494
532.067	5.70895
534.96	5.56601
537.853	4.96857
540.745	4.37538
543.638	4.23984
546.531	3.47522
549.423	3.01097
552.316	3.15553
555.209	2.39804
558.102	2.13162
560.994	2.07133
563.887	1.42937
566.78	1.5208
569.672	1.57945
572.565	2.31889
575.458	1.68253
578.351	1.55327
581.243	0.224579
584.136	1.00398
587.029	1.19772
589.921	1.29445
592.814	0.216995
595.707	0.722275
598.599	1.79135
601.492	1.67166
604.385	2.37949
607.278	1.43358
610.17	1.88086
613.063	2.80542
615.956	1.83926
618.848	4.28618
621.741	4.13931
624.634	4.00543
627.526	4.44833
630.419	3.08749
633.312	4.72072
636.205	4.28114
639.097	3.65062
641.99	3.64105
644.883	3.38577
647.775	3.76611
650.668	1.94077
653.561	1.99972
656.453	1.74155
659.346	1.77573
662.239	0.897964
665.131	0.393982
668.024	0.386856
670.917	0.191467
673.81	0.30954
676.702	1.10001
679.595	0.781769
682.488	0.137634
685.38	3.00075
688.273	5.56418
691.166	9.47812
694.058	11.9268
696.951	15.5206
699.844	19.886
702.737	27.1395
705.629	35.974
708.522	47.698
711.415	58.1446
714.307	67.1632
717.2	75.353
720.093	76.7578
722.986	64.9781
725.878	47.9132
728.771	28.8917
731.664	16.4772
734.556	6.81419
737.449	0.872314
740.342	3.6283
743.234	4.62399
746.127	5.72926
749.02	4.72359
751.913	1.73674
754.805	1.88318
757.698	6.45886
760.591	12.2166
763.483	22.6309
766.376	33.383
769.269	48.1079
772.161	63.9558
775.054	85.0103
777.947	108.823
780.84	139.078
783.732	170.75
786.625	205.547
789.518	247.591
792.41	291.227
795.303	344.895
798.196	410.797
801.088	490.395
803.981	595.277
806.874	729.183
809.766	873.681
812.659	1026.46
815.552	1183.25
818.445	1331.43
821.337	1434.85
824.23	1459.71
827.123	1380.35
830.015	1215.8
832.908	1004.24
835.801	790.693
838.693	608.872
841.586	463.068
844.479	352.584
847.372	266.949
850.264	204.055
853.157	157.195
856.05	121.526
858.942	93.461
861.835	71.8635
864.728	55.4445
867.62	42.2581
870.513	32.4776
873.406	24.0043
876.299	16.629
879.191	11.1045
882.084	6.88858
884.977	3.96845
887.869	1.09932
890.762	0.309204
893.655	3.35915
896.548	1.87779
899.44	2.5537
902.333	3.7061
905.226	1.94107
908.118	1.88351
911.011	0.804535
913.904	0.152771
916.796	1.33356
919.689	2.06064
922.582	3.47528
925.474	1.42253
928.367	1.86827
931.26	1.68405
934.153	2.80516
937.045	4.43225
939.938	6.18027
942.831	5.7813
945.723	7.60063
948.616	7.69235
951.509	8.01194
954.401	7.83458
957.294	7.95715
960.187	7.48016
963.08	6.48072
965.972	4.98056
968.865	5.43511
971.758	4.495
974.65	5.77902
977.543	4.62838
980.436	4.66345
983.328	5.2739
986.221	4.48015
989.114	4.24271
992.006	4.32172
994.899	3.97755
997.792	3.04026
1000.68	2.86082
1003.58	3.86551
1006.47	3.36578
1009.36	2.0945
1012.25	2.57783
1015.15	3.06896
1018.04	2.34037
1020.93	3.14869
1023.83	1.26381
1026.72	1.62614
1029.61	2.55736
1032.5	2.99863
1035.4	1.91604
1038.29	2.60437
1041.18	1.52334
1044.08	1.62026
1046.97	0.112953
1049.86	1.2053
1052.75	0.536758
1055.65	1.02306
1058.54	1.47375
1061.43	0.760056
1064.32	0.245087
1067.22	0.074844
1070.11	0.839653
1073	0.649208
1075.89	1.25848
1078.79	0.092766
1081.68	1.48475
1084.57	1.34734
1087.47	0.775925
1090.36	0.921364
1093.25	1.28472
1096.14	0.488609
1099.04	0.786476
1101.93	1.39436
1104.82	0.21656
1107.71	0.0037
1110.61	0.125565
1113.5	0.850151
1116.39	0.551651
1119.29	0.293816
1122.18	0.68132
1125.07	0.805084
1127.96	1.35174
1130.86	1.01788
1133.75	0.020386
1136.64	0.790108
1139.53	0.735886
1142.43	0.862015
1145.32	1.72507
1148.21	0.763229
1151.11	1.75498
1154	0.506325
1156.89	0.301941
1159.78	1.15428
1162.68	1.29248
1165.57	0.490211
1168.46	1.58388
1171.35	1.66302
1174.25	1.14423
1177.14	1.40395
1180.03	1.56201
1182.92	1.48727
1185.82	0.72847
1188.71	7.10255
1191.6	1.19344
1194.49	1.80372
1197.39	1.03699
1200.28	1.04763
1203.17	1.0963
1206.07	1.97988
1208.96	0.762878
1211.85	0.598656
1214.74	0.614944
1217.64	0.637566
1220.53	0.207664
1223.42	0.858421
1226.32	0.15152
1229.21	0.497635
1232.1	0.244881
1234.99	0.28331
1237.89	0.806068
1240.78	0.15551
1243.67	0.898254
1246.56	1.02225
1249.46	2.1305
1252.35	1.61588
1255.24	1.98861
1258.13	0.951851
1261.03	1.31831
1263.92	0.822388
1266.81	2.00784
1269.71	1.62019
1272.6	0.71801
1275.49	0.751961
1278.38	2.27512
1281.28	0.009224
1284.17	0.256287
