Measurement: Raman, 780 nm, unoriented, Raman Data Processed
Mineral: Vanadinite
Rruff sample: R050171
Ideal chemistry: Pb_5_(VO_4_)_3_Cl
Locality: Hamburg mine, La Paz County, Arizona, USA
Source: Marcus Origlieri
Description: Red prismatic hexagonal crystals
Measured chemistry: Pb_5.00_((V_0.89_As_0.11_)O_4_)_3_Cl_1.00_
Raman shift (cm-1)	intensity
118.537	0
121.43	1.93872
124.322	52.0568
127.215	118.111
130.108	225.434
133	321.095
135.893	419.356
138.786	498.588
141.679	560.567
144.571	596.111
147.464	602.347
150.357	591.843
153.249	569.029
156.142	574.096
159.035	581.69
161.927	588.948
164.82	632.231
167.713	639.005
170.606	669.683
173.498	672.79
176.391	640.336
179.284	588.711
182.176	514.939
185.069	449.526
187.962	382.741
190.854	314.967
193.747	256.872
196.64	198.933
199.532	148.255
202.425	113.161
205.318	83.3897
208.211	58.4354
211.103	46.6003
213.996	27.0518
216.889	22.1596
219.781	11.8451
222.674	4.89606
225.567	1.4223
228.459	2.90411
231.352	4.61121
234.245	13.86
237.137	13.7778
240.03	22.2554
242.923	22.0174
245.816	19.0842
248.708	17.9456
251.601	12.5498
254.494	6.09552
257.386	36.1628
260.279	79.7164
263.172	141.227
266.065	247.581
268.957	380.793
271.85	535.961
274.743	690.664
277.635	847.95
280.528	1023.17
283.421	1239.62
286.313	1411.49
289.206	1581.31
292.099	1625.94
294.991	1685.36
297.884	1961.2
300.777	2489.87
303.67	3111.82
306.562	3711.89
309.455	4317.42
312.348	4909.19
315.24	5479.39
318.133	5879.81
321.026	5773.59
323.918	4870.17
326.811	3603.02
329.704	2621.19
332.597	1973.56
335.489	1562.08
338.382	1290.5
341.275	1209.59
344.167	1268.21
347.06	1419.39
349.953	1585.09
352.846	1697.46
355.738	1670.79
358.631	1628.3
361.524	1603.55
364.416	1519.98
367.309	1135.53
370.202	624.338
373.094	276.42
375.987	74.8569
378.88	7.78735
381.772	55.0083
384.665	57.8508
387.558	41.1543
390.451	3.6582
393.343	45.7551
396.236	87.1628
399.129	140.243
402.021	174.418
404.914	225.415
407.807	267.462
410.7	299.009
413.592	323.87
416.485	327.117
419.378	306.984
422.27	312.138
425.163	322.735
428.056	337.096
430.948	352.588
433.841	373.078
436.734	388.623
439.627	379.876
442.519	367.939
445.412	339.415
448.305	316.6
451.197	297.047
454.09	264.403
456.983	224.835
459.875	194.417
462.768	157.035
465.661	130.89
468.553	98.2996
471.446	79.7247
474.339	58.9493
477.232	47.9504
480.124	26.8166
483.017	13.1451
485.91	6.91077
488.802	8.64038
491.695	8.82019
494.588	6.18164
497.481	7.06067
500.373	9.31384
503.266	7.0083
506.159	6.16357
509.051	4.61792
511.944	0.328369
514.837	13.9391
517.729	16.1855
520.622	20.4099
523.515	34.1515
526.408	32.6132
529.3	45.3595
532.193	55.9568
535.086	67.3589
537.978	61.0851
540.871	66.4764
543.764	79.6567
546.656	69.2214
549.549	67.3245
552.442	60.7534
555.335	54.0649
558.227	49.078
561.12	43.672
564.013	37.5621
566.905	31.7211
569.798	32.735
572.691	24.6946
575.583	29.2828
578.476	26.8202
581.369	25.35
584.261	30.2828
587.154	33.4236
590.047	33.8554
592.94	40.8122
595.832	39.3771
598.725	60.0431
601.618	52.3592
604.51	62.2775
607.403	74.5307
610.296	83.399
613.188	89.9258
616.081	103.615
618.974	106.309
621.867	113.956
624.759	121.024
627.652	127.12
630.545	125.651
633.437	128.063
636.33	124.305
639.223	118.147
642.115	97.3958
645.008	92.4468
647.901	78.8215
650.794	66.6794
653.686	45.1249
656.579	37.4191
659.472	33.8228
662.364	16.8765
665.257	13.1641
668.15	9.2486
671.043	4.67847
673.935	1.45453
676.828	10.6656
679.721	3.97626
682.613	0.719971
685.506	15.6451
688.399	21.4703
691.291	24.3609
694.184	30.6046
697.077	40.0911
699.97	60.099
702.862	88.5685
705.755	139.203
708.648	193.792
711.54	237.053
714.433	272.471
717.326	299.13
720.218	308.49
723.111	243.549
726.004	160.789
728.896	73.8579
731.789	19.4627
734.682	16.1199
737.575	31.4728
740.467	37.6588
743.36	39.5339
746.253	15.2141
749.145	5.52564
752.038	63.1016
754.931	116.52
757.823	178.801
760.716	271.589
763.609	388.246
766.502	515.954
769.394	673.162
772.287	866.57
775.18	1070.52
778.072	1302.64
780.965	1555.41
783.858	1796.08
786.75	2037.47
789.643	2257.09
792.536	2469.54
795.429	2697.73
798.321	2990.98
801.214	3396.74
804.107	3946.45
806.999	4650.05
809.892	5450.81
812.785	6276.33
815.678	7068.33
818.57	7728.67
821.463	8104.25
824.356	8028.28
827.248	7447.58
830.141	6397.27
833.034	5166.61
835.926	3991.84
838.819	3007.25
841.712	2249.97
844.605	1674.89
847.497	1260.92
850.39	934.607
853.283	697.391
856.175	512.527
859.068	371.388
861.961	280.036
864.853	211.273
867.746	151.634
870.639	105.741
873.532	79.5192
876.424	53.0015
879.317	25.8655
882.21	12.0696
885.102	3.26856
887.995	16.0894
890.888	14.5997
893.78	20.0374
896.673	20.5785
899.566	22.0845
902.458	16.0797
905.351	6.17279
908.244	3.42056
911.137	1.73358
914.029	9.96844
916.922	16.4027
919.815	25.5661
922.707	24.8192
925.6	30.6507
928.493	36.0935
931.385	41.3135
934.278	49.0637
937.171	54.8975
940.063	59.1046
942.956	67.708
945.849	67.0463
948.742	72.7418
951.634	66.7403
954.527	63.8699
957.42	59.5022
960.312	53.9236
963.205	51.4893
966.098	46.503
968.99	39.005
971.883	38.8255
974.776	34.7085
977.669	31.871
980.561	31.9403
983.454	32.1822
986.347	31.4555
989.239	24.9509
992.132	27.671
995.025	23.9154
997.918	21.2898
1000.81	19.1377
1003.7	17.0385
1006.6	14.6979
1009.49	11.8127
1012.38	11.7736
1015.27	11.4259
1018.17	12.2748
1021.06	5.46635
1023.95	6.71231
1026.85	10.8445
1029.74	8.11494
1032.63	7.04985
1035.52	9.62904
1038.41	9.72821
1041.31	10.4144
1044.2	9.50537
1047.09	9.49976
1049.99	10.0032
1052.88	11.5837
1055.77	12.6489
1058.66	11.986
1061.56	10.2693
1064.45	13.1382
1067.34	9.56354
1070.23	14.7408
1073.13	18.7935
1076.02	17.4814
1078.91	19.6662
1081.81	23.4515
1084.7	27.5949
1087.59	30.6059
1090.48	33.5831
1093.38	27.6919
1096.27	31.3839
1099.16	35.1497
1102.06	35.7899
1104.95	34.392
1107.84	34.2707
1110.73	33.6185
1113.62	26.4408
1116.52	28.4471
1119.41	23.7255
1122.3	26.8913
1125.2	18.4312
1128.09	16.8807
1130.98	9.94855
1133.87	2.33502
1136.77	3.51721
1139.66	8.45996
1142.55	0.718262
1145.44	3.44196
1148.34	0.872437
1151.23	2.46484
1154.12	7.06787
1157.02	10.3842
1159.91	15.9441
1162.8	24.0094
1165.69	24.4288
1168.59	17.2524
1171.48	12.0829
1174.37	16.2684
1177.27	16.2532
1180.16	13.2465
1183.05	12.9597
1185.94	9.60681
1188.84	11.4564
1191.73	3.28674
1194.62	0.091309
