Measurement: Raman, 532 nm, unoriented, Raman Data Processed
Mineral: Vanadinite
Rruff sample: R050533
Ideal chemistry: Pb_5_(VO_4_)_3_Cl
Locality: Ahumada mine, Los Lamentos, Mexico
Source: University of Arizona Mineral Museum
Description: Greenish-brown hexagonal prisms
Measured chemistry: Pb_5.00_((V_0.95_As_0.05_)O_4_)_3_Cl_1.00_
Raman shift (cm-1)	intensity
145.405	0
148.78	43.1091
152.155	77.4863
155.53	72.4457
158.905	55.556
162.279	75.1626
165.654	111.424
169.029	151.804
172.404	181.079
175.779	205.643
179.153	237.492
182.528	241.531
185.903	224.295
189.278	182.698
192.653	144.815
196.028	104.616
199.402	49.6565
202.777	16.8058
206.152	6.60535
209.527	2.31519
212.902	2.76856
216.276	1.79285
219.651	9.75952
223.026	7.1842
226.401	14.4524
229.776	7.16577
233.15	6.30335
236.525	5.6571
239.9	8.01526
243.275	3.375
246.65	2.50098
250.025	3.35596
253.399	10.5764
256.774	28.8104
260.149	50.5195
263.524	82.6528
266.899	137.771
270.273	214.808
273.648	339.459
277.023	518.877
280.398	730.81
283.773	995.734
287.147	1263.27
290.522	1376.63
293.897	1266.03
297.272	1099.48
300.647	1092.39
304.022	1268.14
307.396	1619.07
310.771	2106.2
314.146	2768.24
317.521	3543.75
320.896	4030.41
324.271	3643.75
327.645	2622.78
331.02	1761.14
334.395	1193.54
337.77	850.875
341.145	694.063
344.519	699.604
347.894	859.942
351.269	1084.2
354.644	1235.8
358.019	1312.35
361.394	1466.69
364.768	1535.36
368.143	1125.32
371.518	611.507
374.893	306.416
378.267	149.846
381.642	57.0346
385.017	8.44543
388.392	12.3467
391.767	14.2421
395.142	16.8519
398.516	7.83167
401.891	4.10583
405.266	29.774
408.641	58.3196
412.016	79.4015
415.39	73.0205
418.765	47.3922
422.14	24.0319
425.515	3.60156
428.89	4.3075
432.265	8.39868
435.639	9.11585
439.014	8.19312
442.389	0.302734
445.764	3.6604
449.139	11.7852
452.514	10.4788
455.888	14.1317
459.263	19.2559
462.638	18.9592
466.013	25.218
469.388	29.3818
472.762	31.1489
476.137	42.0463
479.512	49.1608
482.887	53.0724
486.262	46.8892
489.637	49.703
493.011	44.4934
496.386	41.2039
499.761	34.7872
503.136	24.8602
506.511	19.4603
509.885	22.8014
513.26	23.5901
516.635	18.7894
520.01	18.6708
523.385	13.4803
526.76	12.5681
530.134	8.66809
533.509	8.3656
536.884	12.7155
540.259	14.1218
543.634	12.2524
547.008	7.17236
550.383	11.0254
553.758	10.7887
557.133	5.38794
560.508	6.68042
563.882	5.36475
567.257	4.4679
570.632	6.72986
574.007	0.79834
577.382	0.719971
580.756	5.00623
584.131	0.766357
587.506	9.42456
590.881	5.48438
594.256	13.491
597.631	8.63525
601.005	18.4348
604.38	11.8877
607.755	17.5713
611.13	21.6766
614.505	23.0159
617.88	28.9615
621.254	33.8086
624.629	38.1719
628.004	45.6707
631.379	47.1114
634.754	50.1904
638.128	60.7424
641.503	53.6957
644.878	54.0685
648.253	46.6686
651.628	39.9407
655.002	39.0476
658.377	31.8479
661.752	25.803
665.127	20.5483
668.502	8.92334
671.876	5.901
675.251	1.15515
678.626	6.80908
682.001	5.85828
685.376	2.80005
688.751	16.222
692.125	17.8737
695.5	15.0037
698.875	27.8455
702.25	46.5419
705.625	80.7792
709	130.739
712.374	192.519
715.749	254.147
719.124	309.12
722.499	297.464
725.874	224.015
729.248	130.211
732.623	56.0795
735.998	6.96619
739.373	30.0923
742.748	45.8157
746.122	46.541
749.497	19.3689
752.872	26.2583
756.247	93.2415
759.622	189.231
762.997	312.411
766.371	471.637
769.746	665
773.121	921.474
776.496	1209.99
779.871	1554.26
783.245	1926.73
786.62	2272.59
789.995	2544.86
793.37	2773.82
796.745	3019.56
800.12	3368.95
803.494	3914.36
806.869	4710.5
810.244	5735.43
813.619	6876.17
816.994	8114.46
820.368	9234.62
823.743	9895.74
827.118	9632.83
830.493	8362.77
833.868	6610.38
837.242	4920.6
840.617	3590.25
843.992	2565.08
847.367	1815.52
850.742	1311.58
854.117	949.979
857.491	690.27
860.866	484.672
864.241	345.265
867.616	243.588
870.991	164.352
874.365	100.063
877.74	60.2402
881.115	28.9898
884.49	5.58814
887.865	16.1352
891.24	20.4915
894.614	21.9544
897.989	24.199
901.364	16.5612
904.739	14.8954
908.114	5.18445
911.489	0.680664
914.863	24.2812
918.238	43.548
921.613	46.1782
924.988	31.9946
928.362	32.3687
931.737	37.2043
935.112	49.1194
938.487	55.1777
941.862	63.8965
945.237	73.5148
948.611	70.5106
951.986	68.0829
955.361	59.0542
958.736	57.7614
962.111	55.3488
965.486	41.8748
968.86	34.4001
972.235	26.1686
975.61	34.4354
978.985	30.7296
982.36	28.6322
985.734	33.0121
989.109	27.3989
992.484	17.8641
995.859	16.7317
999.234	15.04
1002.61	13.1686
1005.98	11.6985
1009.36	7.99951
1012.73	7.0863
1016.11	9.30823
1019.48	8.89038
1022.86	6.07312
1026.23	2.21814
1029.61	10.1497
1032.98	7.49182
1036.36	12.6169
1039.73	5.79907
1043.11	2.92761
1046.48	12.129
1049.86	3.72156
1053.23	1.88025
1056.61	5.04627
1059.98	0.885864
1063.36	6.24036
1066.73	5.63806
1070.11	8.28918
1073.48	8.13281
1076.85	6.7677
1080.23	6.81848
1083.6	12.1677
1086.98	9.01831
1090.35	2.58362
1093.73	6.16809
1097.1	4.87939
1100.48	3.59363
1103.85	1.01038
1107.23	5.67725
1110.6	4.32654
1113.98	2.2334
1117.35	1.08081
1120.73	1.41174
1124.1	3.56299
1127.48	7.90418
1130.85	8.46545
1134.23	11.2041
1137.6	9.94287
1140.98	6.03088
1144.35	4.28235
1147.73	2.84265
1151.1	0.210083
1154.47	6.8418
1157.85	4.0647
1161.22	4.53332
1164.6	5.86316
1167.97	3.82275
1171.35	2.99316
1174.72	0.625488
1178.1	13.684
1181.47	2.13611
1184.85	6.96021
1188.22	11.6398
1191.6	6.85535
1194.97	3.61829
1198.35	9.05933
1201.72	4.81958
1205.1	0.237793
1208.47	2.34705
1211.85	1.60474
1215.22	5.25452
1218.6	7.16736
1221.97	13.8279
1225.35	0.575195
1228.72	0.45459
1232.1	4.51807
1235.47	0.333374
1238.85	2.32544
1242.22	1.67248
1245.6	7.00281
1248.97	10.625
1252.35	3.45288
1255.72	1.23083
1259.09	7.16785
1262.47	7.72424
1265.84	8.2876
1269.22	8.13123
1272.59	9.93188
1275.97	12.9665
1279.34	8.85571
1282.72	9.38586
1286.09	7.17871
1289.47	9.77612
1292.84	1.81055
1296.22	1.49792
1299.59	7.18604
1302.97	0.058472
