Measurement: Raman, 780 nm, unoriented, Raman Data Processed
Mineral: Vanadiocarpholite
Rruff sample: R080099
Ideal chemistry: Mn^2+^V^3+^AlSi_2_O_6_(OH)_4_
Locality: Molinello mine, Graveglia Valley, Ne, Genova Province, Liguria, Italy
Source: Michael Scott
Description: Yellow brown fibrous, associated with quartz crystals on matrix
Raman shift (cm-1)	intensity
103.612	0
106.987	5.02464
110.362	0.869362
113.737	5.72049
117.111	1.71728
120.486	2.3007
123.861	4.90596
127.236	3.27655
130.611	7.41565
133.986	4.97947
137.36	1.60906
140.735	3.53838
144.11	5.55225
147.485	10.4773
150.859	17.6357
154.234	30.5474
157.609	48.0346
160.984	64.9906
164.359	79.153
167.734	67.6282
171.108	45.9938
174.483	28.7654
177.858	20.3633
181.233	14.9308
184.608	13.0087
187.982	12.4042
191.357	12.7072
194.732	14.2129
198.107	13.0758
201.482	13.7667
204.857	13.9615
208.231	13.2206
211.606	14.268
214.981	12.8317
218.356	8.29015
221.731	4.14862
225.106	1.51045
228.48	0.078751
231.855	2.90696
235.23	1.14825
238.605	0.223259
241.98	1.25716
245.354	1.54066
248.729	3.40205
252.104	5.23378
255.479	7.90082
258.854	7.90982
262.228	11.3447
265.603	15.7441
268.978	17.8233
272.353	20.1055
275.728	20.9254
279.103	23.3904
282.477	28.9805
285.852	36.0829
289.227	42.877
292.602	52.4052
295.977	63.0179
299.351	73.442
302.726	83.7731
306.101	94.9827
309.476	106.968
312.851	118.15
316.226	126.291
319.6	127.107
322.975	120.625
326.35	103.429
329.725	80.5643
333.1	62.146
336.474	48.5568
339.849	41.0128
343.224	35.1126
346.599	31.3495
349.974	23.9184
353.349	16.6339
356.723	11.863
360.098	8.82398
363.473	3.9643
366.848	1.87116
370.223	0.908043
373.597	0.838425
376.972	1.03913
380.347	0.594604
383.722	1.74448
387.097	5.15804
390.471	8.533
393.846	12.6579
397.221	12.286
400.596	9.08018
403.971	7.01556
407.346	1.94208
410.72	0.298553
414.095	1.12074
417.47	0.154884
420.845	1.5472
424.22	3.66477
427.594	5.1261
430.969	6.68772
434.344	9.06712
437.719	11.6553
441.094	11.9404
444.469	10.8585
447.843	11.9973
451.218	11.2777
454.593	12.8262
457.968	13.2434
461.343	12.3697
464.717	10.9684
468.092	8.83663
471.467	6.82979
474.842	3.3553
478.217	2.00316
481.592	1.2314
484.966	0.36837
488.341	0.077274
491.716	0.150852
495.091	0.708344
498.466	2.00451
501.841	1.44984
505.215	3.52723
508.59	3.10896
511.965	3.88911
515.34	6.34088
518.715	6.90911
522.089	8.42119
525.464	10.4322
528.839	11.3695
532.214	13.1364
535.589	13.7358
538.963	16.1402
542.338	17.0532
545.713	19.4798
549.088	20.3471
552.463	19.9518
555.837	20.7101
559.212	21.4422
562.587	21.8911
565.962	21.4018
569.337	20.9326
572.712	21.1587
576.086	19.2502
579.461	19.1855
582.836	16.638
586.211	15.3842
589.586	12.1167
592.96	12.0187
596.335	10.8351
599.71	9.51449
603.085	7.93309
606.46	7.26092
609.835	5.76094
613.209	4.59581
616.584	4.57302
619.959	2.72165
623.334	1.91934
626.709	0.83366
630.083	0.727501
633.458	0.361454
636.833	0.622135
640.208	0.646099
643.583	0.308426
646.957	0.361252
650.332	0.379551
653.707	1.7995
657.082	1.51922
660.457	2.02893
663.832	3.36126
667.206	3.94158
670.581	6.66771
673.956	5.29488
677.331	7.11745
680.706	8.08175
684.081	9.97405
687.455	10.5031
690.83	12.8922
694.205	15.4871
697.58	18.9005
700.955	22.9029
704.329	27.2888
707.704	33.6735
711.079	40.4468
714.454	42.5165
717.829	37.2052
721.203	29.0537
724.578	21.5269
727.953	15.0471
731.328	11.8663
734.703	10.4399
738.078	9.48383
741.452	8.4154
744.827	7.20365
748.202	8.16511
751.577	7.3345
754.952	6.819
758.327	5.98889
761.701	5.47766
765.076	4.62415
768.451	2.95476
771.826	1.28098
775.201	1.60205
778.575	0.092581
781.95	0.449984
785.325	0.336876
788.7	0.529215
792.075	0.154694
795.449	0.427872
798.824	1.05886
802.199	1.01591
805.574	0.101286
808.949	0.788803
812.323	0.593727
815.698	0.868221
819.073	1.52302
822.448	1.25898
825.823	1.66257
829.198	3.16913
832.572	5.40625
835.947	6.45417
839.322	8.56574
842.697	11.0192
846.072	14.1249
849.447	18.8607
852.821	23.2912
856.196	30.7535
859.571	40.5286
862.946	49.4358
866.321	58.5769
869.695	68.6348
873.07	76.8385
876.445	82.484
879.82	93.1021
883.195	103.846
886.569	112.718
889.944	123.139
893.319	129.359
896.694	133.319
900.069	140.48
903.444	150.498
906.818	163.204
910.193	164.961
913.568	154.149
916.943	129.574
920.318	102.208
923.692	72.4051
927.067	48.7923
930.442	30.7162
933.817	19.4533
937.192	12.4001
940.567	8.4419
943.941	6.8147
947.316	5.70704
950.691	4.91738
954.066	3.2243
957.441	1.86345
960.815	0.959515
964.19	1.24379
967.565	0.07111
970.94	0.885057
974.315	1.54776
977.689	0.770388
981.064	0.399551
984.439	0.015379
987.814	1.07795
991.189	1.41114
994.564	2.50549
997.938	2.39731
1001.31	4.302
1004.69	4.44338
1008.06	5.90333
1011.44	8.00126
1014.81	7.71061
1018.19	8.61767
1021.56	7.72879
1024.94	7.3563
1028.31	6.16789
1031.69	5.13231
1035.06	7.48095
1038.44	7.40184
1041.81	6.85099
1045.19	8.89224
1048.56	9.94524
1051.94	10.4541
1055.31	11.7301
1058.68	11.8258
1062.06	11.3896
1065.43	10.7215
1068.81	9.35722
1072.18	5.9416
1075.56	4.99249
1078.93	2.285
1082.31	3.10905
1085.68	1.80145
1089.06	2.17184
1092.43	2.67744
1095.81	1.47697
1099.18	1.55147
1102.56	0.87273
1105.93	0.097784
1109.31	1.14569
1112.68	0.197716
1116.06	0.171099
1119.43	0.052887
1122.81	0.255247
1126.18	0.070112
1129.56	0.437771
1132.93	0.956797
1136.31	1.24687
1139.68	1.51856
1143.06	1.27541
1146.43	0.360323
1149.81	0.644444
1153.18	1.38046
1156.56	1.36866
1159.93	1.7721
1163.3	2.3595
1166.68	0.933903
1170.05	1.00473
1173.43	1.43162
1176.8	1.25315
1180.18	1.59935
1183.55	1.5515
1186.93	1.78416
1190.3	1.86891
1193.68	1.95892
1197.05	2.13334
1200.43	2.29391
1203.8	0.867411
1207.18	0.765495
1210.55	0.845188
1213.93	2.19369
1217.3	1.86056
1220.68	0.56576
1224.05	2.41866
1227.43	0.040995
1230.8	0.335947
1234.18	0.113373
1237.55	0.189676
1240.92	0.202101
1244.3	1.15276
1247.67	1.55213
1251.05	1.13458
1254.42	0.729645
1257.8	0.613045
1261.17	0.848694
1264.55	2.0935
1267.92	1.01678
1271.3	0.572556
1274.67	1.59489
1278.05	1.9391
1281.42	0.495912
1284.8	0.451
