Measurement: Raman, 532 nm, unoriented, Raman Data Processed
Mineral: Vanadiocarpholite
Rruff sample: R080099
Ideal chemistry: Mn^2+^V^3+^AlSi_2_O_6_(OH)_4_
Locality: Molinello mine, Graveglia Valley, Ne, Genova Province, Liguria, Italy
Source: Michael Scott
Description: Yellow brown fibrous, associated with quartz crystals on matrix
Raman shift (cm-1)	intensity
122.245	0
125.62	5.13252
128.994	5.03459
132.369	18.4892
135.744	18.1515
139.119	31.326
142.494	18.7898
145.869	17.1689
149.243	25.6239
152.618	41.4399
155.993	65.8703
159.368	74.0034
162.743	89.8517
166.117	87.4257
169.492	66.8213
172.867	48.4687
176.242	37.3956
179.617	33.7313
182.992	29.1229
186.366	29.2082
189.741	28.2686
193.116	27.2135
196.491	26.5724
199.865	21.8463
203.24	18.4459
206.615	13.9434
209.99	10.8193
213.365	10.9601
216.74	7.0118
220.114	1.05872
223.489	0.346024
226.864	2.59764
230.239	3.14347
233.614	1.19295
236.988	0.03891
240.363	1.07962
243.738	2.80208
247.113	6.01578
250.488	9.20093
253.863	12.1844
257.237	16.6783
260.612	20.4599
263.987	21.1227
267.362	23.6706
270.737	26.2949
274.111	29.6456
277.486	34.5928
280.861	39.8886
284.236	49.4734
287.611	58.9906
290.986	69.5532
294.36	81.5386
297.735	93.0562
301.11	105.645
304.485	118.224
307.86	127.285
311.235	133.636
314.609	137.068
317.984	133.008
321.359	123.188
324.734	108.85
328.109	85.7373
331.483	65.336
334.858	49.8992
338.233	39.4406
341.608	34.9464
344.983	28.9227
348.358	23.2968
351.732	16.837
355.107	10.5263
358.482	6.0901
361.857	2.94954
365.232	1.06801
368.606	1.23595
371.981	1.81479
375.356	0.58287
378.731	1.6375
382.106	4.56554
385.481	9.84285
388.855	14.4341
392.23	17.8774
395.605	17.5352
398.98	14.4546
402.355	9.46902
405.729	4.35981
409.104	2.25256
412.479	1.41116
415.854	0.310135
419.229	1.40936
422.603	0.664619
425.978	0.817352
429.353	4.55344
432.728	6.76849
436.103	12.2975
439.478	11.5563
442.852	14.3404
446.227	17.0004
449.602	15.9905
452.977	18.5003
456.352	19.4897
459.726	20.5506
463.101	18.9119
466.476	16.4897
469.851	12.5296
473.226	8.08496
476.601	2.83033
479.975	2.15684
483.35	0.293945
486.725	0.317825
490.1	2.14769
493.475	1.24897
496.849	0.686813
500.224	3.21558
503.599	5.51744
506.974	6.44402
510.349	9.79913
513.723	13.7187
517.098	17.0611
520.473	20.3873
523.848	23.5326
527.223	27.8266
530.598	30.3895
533.972	32.8056
537.347	34.889
540.722	37.1321
544.097	39.8136
547.472	41.6618
550.846	42.2716
554.221	44.0343
557.596	42.3366
560.971	43.775
564.346	45.3879
567.721	43.4947
571.095	40.2451
574.47	34.9938
577.845	32.5581
581.22	29.147
584.595	26.2974
587.97	22.9587
591.344	20.5815
594.719	19.7402
598.094	18.6115
601.469	15.6577
604.844	13.7119
608.218	12.3864
611.593	10.9244
614.968	7.79348
618.343	6.29024
621.718	3.85021
625.092	1.51811
628.467	0.412376
631.842	0.89579
635.217	1.04826
638.592	2.62416
641.967	1.56064
645.341	0.313889
648.716	1.82834
652.091	3.03011
655.466	5.55064
658.841	10.2787
662.216	12.899
665.59	18.1461
668.965	23.5777
672.34	27.7538
675.715	33.0287
679.09	43.4029
682.464	47.9396
685.839	55.8188
689.214	66.2742
692.589	75.732
695.964	83.9961
699.338	96.7061
702.713	100.657
706.088	104.942
709.463	104.241
712.838	97.2072
716.212	81.9954
719.587	61.7411
722.962	44.4273
726.337	33.7818
729.712	26.3656
733.087	21.3435
736.461	17.7568
739.836	17.278
743.211	16.3017
746.586	16.6202
749.961	17.2546
753.336	17.4481
756.71	15.1399
760.085	13.6699
763.46	10.3925
766.835	8.57973
770.21	6.16293
773.584	3.06199
776.959	2.28639
780.334	2.35365
783.709	0.29789
787.084	0.22184
790.458	0.269272
793.833	1.88491
797.208	0.14283
800.583	2.15659
803.958	1.16345
807.333	0.991814
810.707	0.820625
814.082	0.987312
817.457	0.344597
820.832	0.851257
824.207	0.591034
827.582	2.85804
830.956	4.5969
834.331	8.06357
837.706	12.8273
841.081	16.2822
844.456	22.3141
847.83	29.8777
851.205	41.0585
854.58	53.108
857.955	72.3651
861.33	92.13
864.705	118.052
868.079	148.85
871.454	180.861
874.829	218.311
878.204	257.541
881.579	301.889
884.953	339.538
888.328	373.351
891.703	401.139
895.078	423.926
898.453	460.538
901.827	514.597
905.202	568.414
908.577	582.913
911.952	548.14
915.327	464.829
918.702	367.919
922.076	271.084
925.451	182.903
928.826	120.17
932.201	75.1437
935.576	47.6124
938.95	33.0314
942.325	24.274
945.7	19.9303
949.075	16.6534
952.45	10.2543
955.824	5.50709
959.199	2.84502
962.574	0.017593
965.949	0.971848
969.324	2.45215
972.699	3.1391
976.073	1.78958
979.448	0.74543
982.823	0.722679
986.198	0.531853
989.573	3.74066
992.947	6.50527
996.322	8.21051
999.697	11.6377
1003.07	14.6241
1006.45	17.075
1009.82	19.7386
1013.2	22.7579
1016.57	22.0774
1019.95	21.3381
1023.32	20.2063
1026.7	20.1909
1030.07	19.5035
1033.44	20.9022
1036.82	25.1827
1040.19	28.0141
1043.57	32.1551
1046.94	36.3592
1050.32	42.1503
1053.69	46.9499
1057.07	51.3226
1060.44	55.9116
1063.82	54.3738
1067.19	47.7004
1070.57	37.4045
1073.94	26.6875
1077.32	18.248
1080.69	12.7981
1084.07	9.77614
1087.44	8.75156
1090.82	6.45855
1094.19	6.23906
1097.57	4.72054
1100.94	2.86032
1104.32	1.92991
1107.69	0.547924
1111.07	0.494122
1114.44	1.58985
1117.82	1.44872
1121.19	0.347088
1124.57	0.032578
1127.94	0.415203
1131.32	0.838661
1134.69	0.45628
1138.07	1.13902
1141.44	1.20797
1144.81	1.952
1148.19	2.0188
1151.56	2.16719
1154.94	3.45554
1158.31	2.69072
1161.69	3.94394
1165.06	3.7407
1168.44	3.61691
1171.81	3.4852
1175.19	4.49911
1178.56	3.71658
1181.94	3.77199
1185.31	2.67062
1188.69	3.43732
1192.06	3.65797
1195.44	3.22537
1198.81	2.80197
1202.19	2.03311
1205.56	3.37182
1208.94	3.08507
1212.31	2.63916
1215.68	1.87267
1219.06	2.11667
1222.43	2.14653
1225.81	1.15543
1229.18	1.22013
1232.56	2.01763
1235.93	0.920853
1239.31	0.864014
1242.68	1.71144
1246.06	0.294304
1249.43	1.50877
1252.81	1.20388
1256.18	0.485199
1259.56	0.092068
1262.93	0.400051
1266.31	0.328228
1269.68	1.30566
1273.06	1.2705
1276.43	0.33902
1279.81	2.43284
1283.18	0.483986
1286.56	1.21321
1289.93	1.4464
1293.31	1.01981
1296.68	0.270615
