Measurement: Raman, 785 nm, unoriented, Raman Data Processed
Mineral: Vanalite
Rruff sample: R061117
Ideal chemistry: NaAl_8_V_10_O_38_30H_2_O
Locality: Kurumsak deposit, Karatau, south Kazakhstan
Source: Michael Scott
Description: Yellow fragments embedded in epoxy
Raman shift (cm-1)	intensity
120.665	0
123.558	43.5945
126.451	239.709
129.343	775.823
132.236	1051.47
135.129	811.765
138.021	2009.49
140.914	5459.38
143.807	10109.2
146.699	11169.1
149.592	8553.53
152.485	6313.6
155.377	4886.38
158.27	4358.44
161.163	4609.18
164.056	5245.1
166.948	6707.54
169.841	8956.72
172.734	12350
175.626	15394.2
178.519	16417.1
181.412	12878
184.304	7656.11
187.197	4416.82
190.09	3044.65
192.983	3011.53
195.875	3447.2
198.768	3546.05
201.661	3077.73
204.553	2671.19
207.446	2341.41
210.339	2262.11
213.232	1901.96
216.124	1356.84
219.017	882.013
221.91	924.038
224.802	1207.12
227.695	1588.45
230.588	1966.36
233.48	2420.74
236.373	3034.53
239.266	3739.94
242.159	3941.23
245.051	3827.24
247.944	4069.79
250.837	4680.23
253.729	4895.76
256.622	4252.97
259.515	3627.61
262.407	2969.58
265.3	2391.27
268.193	1702.9
271.086	622.524
273.978	13.3076
276.871	350.157
279.764	499.273
282.656	271.106
285.549	20.707
288.442	234.2
291.334	524.776
294.227	748.78
297.12	1201.81
300.012	1910.09
302.905	2906.05
305.798	4241.8
308.691	5329.98
311.583	5866.2
314.476	5912.94
317.369	5703.7
320.261	5041.28
323.154	4046.11
326.047	3273.9
328.94	2626.65
331.832	2035.54
334.725	1432.94
337.618	985.125
340.51	674.971
343.403	503.885
346.296	361
349.188	208.69
352.081	96.0454
354.974	78.874
357.866	21.4736
360.759	34.417
363.652	16.0073
366.545	3.0415
369.437	10.897
372.33	0.146973
375.223	3.9751
378.115	38.8486
381.008	46.4023
383.901	4.06982
386.793	5.76758
389.686	99.228
392.579	122.369
395.472	175.647
398.364	193.526
401.257	120.861
404.15	106.831
407.042	79.48
409.935	105.119
412.828	116.549
415.72	123.282
418.613	194.031
421.506	153.082
424.399	197.934
427.291	199.185
430.184	189.926
433.077	272.25
435.969	334.343
438.862	379.921
441.755	538.56
444.647	679.464
447.54	707.67
450.433	865.259
453.325	916.487
456.218	875.75
459.111	825.809
462.004	716.76
464.896	480.38
467.789	410.302
470.682	338.128
473.574	280.926
476.467	211.208
479.36	303.866
482.252	233.346
485.145	239.43
488.038	227.836
490.931	208.375
493.823	145.168
496.716	57.9453
499.609	77.2647
502.501	9.42529
505.394	57.6587
508.287	32.7417
511.18	51.2602
514.072	3.01074
516.965	28.3418
519.858	47.7935
522.75	93.0474
525.643	215.699
528.536	318.365
531.428	341.058
534.321	461.275
537.214	540.944
540.106	628.933
542.999	723.415
545.892	822.751
548.785	865.882
551.677	900.979
554.57	938.089
557.463	982.825
560.355	1032.26
563.248	1043.87
566.141	1027.65
569.034	1092.58
571.926	1169.67
574.819	1224
577.712	1274.92
580.604	1383.64
583.497	1444.38
586.39	1488.27
589.282	1508.07
592.175	1549.25
595.068	1456.98
597.96	1398.38
600.853	1297.57
603.746	1218.43
606.639	1094.32
609.531	982.448
612.424	867.291
615.317	848.652
618.209	683.957
621.102	572.749
623.995	523.964
626.888	402.367
629.78	336.856
632.673	258.183
635.566	154.348
638.458	105.611
641.351	24.6758
644.244	16.9233
647.136	34.8711
650.029	12.9424
652.922	45.6455
655.814	9.5166
658.707	5.8335
661.6	4.17432
664.493	43.604
667.385	56.623
670.278	98.4819
673.171	97.73
676.063	67.8823
678.956	120.516
681.849	58.6016
684.741	59.3608
687.634	92.8071
690.527	39.377
693.42	26.7163
696.312	35.0806
699.205	21.5068
702.098	10.6345
704.99	102.917
707.883	116.334
710.776	159.423
713.668	270.93
716.561	198.079
719.454	169.137
722.346	147.499
725.239	77.5664
728.132	92.604
731.025	132.463
733.917	32.229
736.81	102.595
739.703	99.2122
742.595	55.1619
745.488	73.199
748.381	16.3745
751.274	76.8384
754.166	21.7354
757.059	91.8152
759.952	40.4714
762.844	63.7407
765.737	25.6653
768.63	88.4849
771.522	70.0066
774.415	140.132
777.308	177.644
780.201	196.564
783.093	201.906
785.986	262.475
788.879	264.126
791.771	330.094
794.664	366.66
797.557	366.514
800.449	418.913
803.342	492.728
806.235	632.979
809.128	734.802
812.02	833.243
814.913	937.522
817.806	1125.89
820.698	1225.72
823.591	1306.78
826.484	1310.39
829.376	1273.06
832.269	1178.39
835.162	1061.07
838.054	930.71
840.947	808.206
843.84	672.842
846.733	524.806
849.625	444.063
852.518	375.34
855.411	274.033
858.303	173.516
861.196	98.8777
864.089	43.657
866.981	44.2227
869.874	19.2832
872.767	36.9839
875.659	37.7639
878.552	39.022
881.445	1.39062
884.338	41.6895
887.23	39.6775
890.123	64.1611
893.016	68.3618
895.908	133.887
898.801	179.456
901.694	384.31
904.587	515.822
907.479	677.844
910.372	801.653
913.265	892.531
916.157	1117.77
919.05	1397.82
921.943	1837.77
924.835	2600.09
927.728	3540.2
930.621	4401.53
933.514	4436.52
936.406	3864.31
939.299	3544.77
942.192	3886.75
945.084	4689.41
947.977	5266.99
950.87	5208.21
953.763	4425.1
956.655	3470.66
959.548	2591.55
962.441	2072.26
965.333	1801.85
968.226	1690.7
971.119	1771.55
974.011	1952.2
976.904	2486.91
979.797	3064.11
982.689	3705.36
985.582	4253.76
988.475	4671.03
991.368	4865.28
994.26	5255.09
997.153	5704.98
1000.05	6144.27
1002.94	6646.48
1005.83	6078.86
1008.72	4045.05
1011.62	1959.34
1014.51	930.072
1017.4	429.568
1020.29	166.264
1023.19	41.5076
1026.08	14.9761
1028.97	11.3606
1031.87	43.5298
1034.76	7.23022
1037.65	1.64673
1040.54	6.07129
1043.44	17.9434
1046.33	49.4873
1049.22	21.7617
1052.11	18.4099
1055.01	18.8699
1057.9	18.4849
1060.79	17.2952
1063.68	2.90552
1066.58	16.8355
1069.47	38.3855
1072.36	12.2065
1075.26	31.0266
1078.15	25.5488
1081.04	60.8198
1083.93	38.9919
1086.83	112.793
1089.72	66.9939
1092.61	81.2271
1095.51	78.5688
1098.4	69.0779
1101.29	78.3401
1104.18	41.9509
1107.08	101.832
1109.97	47.7593
1112.86	82.9692
1115.75	88.8123
1118.65	68.6096
1121.54	68.3784
1124.43	67.1409
1127.32	76.3618
1130.22	88.2205
1133.11	125.281
1136	99.22
1138.89	130.159
1141.79	135.026
1144.68	148.623
1147.57	109.737
1150.47	207.936
1153.36	216.178
1156.25	234.544
1159.14	338.056
1162.04	348.992
1164.93	413.67
1167.82	426.683
1170.71	412.647
1173.61	371.813
1176.5	307.464
1179.39	242.721
1182.29	198.516
1185.18	108.659
1188.07	106.617
1190.96	71.8115
1193.86	41.2991
1196.75	27.9875
1199.64	0.517578
1202.54	1.43042
1205.43	36.9199
1208.32	37.0635
1211.21	48.1174
1214.11	87.2744
1217	109.279
1219.89	227.82
1222.78	240.385
1225.68	315.522
1228.57	401.244
1231.46	437.559
1234.35	404.113
1237.25	349.371
1240.14	344.903
1243.03	374.673
1245.92	260.927
1248.82	190.103
1251.71	134.212
1254.6	87.6419
1257.5	55.0821
1260.39	37.3309
1263.28	3.62866
1266.17	5.71887
1269.07	11.7877
