Measurement: Raman, 532 nm, unoriented, Raman Data Processed
Mineral: Vanadinite
Rruff sample: R050530
Ideal chemistry: Pb_5_(VO_4_)_3_Cl
Locality: Hillsboro, Sierra County, New Mexico, USA
Source: University of Arizona Mineral Museum
Description: Yellow hexagonal prisms
Measured chemistry: Pb_5.00_((V_0.93_As_0.07_)O_4_)_3_Cl_1.00_
Raman shift (cm-1)	intensity
149.262	0
152.155	349.333
155.048	383.699
157.94	219.791
160.833	87.2617
163.726	228.384
166.618	673.866
169.511	1128.3
172.404	1713.49
175.297	2141.26
178.189	2686.99
181.082	3090.95
183.975	3070.95
186.867	2727.76
189.76	2261.68
192.653	1780.73
195.545	1262.05
198.438	818.844
201.331	451.468
204.224	95.771
207.116	144.308
210.009	123.086
212.902	101.794
215.794	84.0671
218.687	68.5237
221.58	67.3245
224.472	36.1934
227.365	67.051
230.258	16.0649
233.15	31.8198
236.043	29.5718
238.936	17.396
241.829	29.3977
244.721	36.0542
247.614	52.2317
250.507	1.64795
253.399	79.4138
256.292	169.946
259.185	368.243
262.077	610.306
264.97	980.628
267.863	1602.06
270.756	2661.96
273.648	4185.38
276.541	6373.43
279.434	9278.18
282.326	13206.7
285.219	18015.4
288.112	22482
291.005	23375.8
293.897	19899.1
296.79	15335
299.683	12584.5
302.575	12015.2
305.468	13372.8
308.361	16352.3
311.253	21030.3
314.146	27848.7
317.039	36789.8
319.932	45074.2
322.824	46064.1
325.717	36636.3
328.61	25056.4
331.502	16666.5
334.395	11286.8
337.288	7857.9
340.18	6060.28
343.073	5546.17
345.966	6196.76
348.858	8196.34
351.751	10828
354.644	13500.3
357.536	16180.4
360.429	20200.2
363.322	24762.5
366.215	24476.7
369.107	17402.7
372	10123
374.893	5629.09
377.785	3092.22
380.678	1578.55
383.571	695.781
386.464	172.624
389.356	64.7178
392.249	182.446
395.142	184.816
398.034	177.935
400.927	106.244
403.82	2.50269
406.712	208.256
409.605	431.967
412.498	607.366
415.39	628.696
418.283	444.267
421.176	238.207
424.069	57.2417
426.961	56.5259
429.854	95.8181
432.747	103.104
435.639	62.006
438.532	13.1696
441.425	41.6456
444.317	107.888
447.21	162.253
450.103	208.595
452.996	234.661
455.888	274.074
458.781	304.282
461.674	340.091
464.566	389.849
467.459	450.516
470.352	496.791
473.245	534.824
476.137	580.559
479.03	623.83
481.923	655.4
484.815	669.654
487.708	629.543
490.601	592.081
493.493	530.349
496.386	477.082
499.279	430.769
502.171	392.855
505.064	356.927
507.957	324.462
510.85	297.29
513.742	277.131
516.635	249.717
519.528	229.262
522.42	214.239
525.313	205.691
528.206	185.306
531.098	159.649
533.991	144.299
536.884	135.23
539.777	114.019
542.669	94.0092
545.562	78.3256
548.455	55.5287
551.347	44.9404
554.24	21.8662
557.133	10.051
560.025	12.1681
562.918	2.88861
565.811	4.30743
568.704	2.29315
571.596	0.631226
574.489	0.813171
577.382	6.90936
580.274	10.0106
583.167	26.3759
586.06	26.094
588.952	40.361
591.845	50.7607
594.738	64.5414
597.631	89.3441
600.523	103.226
603.416	125.879
606.309	147.02
609.201	168.005
612.094	201.729
614.987	224.66
617.88	253.918
620.772	292.726
623.665	350.714
626.558	392.197
629.45	422.958
632.343	437.507
635.236	454.68
638.128	446.42
641.021	437.537
643.914	399.398
646.807	366.497
649.699	326.686
652.592	280.98
655.485	255.305
658.377	207.673
661.27	170.715
664.163	116.585
667.055	84.0315
669.948	50.2711
672.841	15.8693
675.734	3.4154
678.626	47.5383
681.519	56.4197
684.412	33.5015
687.304	160.86
690.197	314.248
693.09	437.367
695.982	530.057
698.875	674.663
701.768	891.449
704.66	1257.59
707.553	1782.34
710.446	2500.64
713.339	3406.46
716.231	4469.26
719.124	5397.68
722.017	5537.71
724.909	4579.3
727.802	3029.62
730.695	1730.35
733.587	848.467
736.48	212.981
739.373	224.136
742.266	408.222
745.158	497.79
748.051	428.336
750.944	238.12
753.836	124.227
756.729	655.603
759.622	1319.42
762.514	2193.04
765.407	3191.57
768.3	4409.88
771.193	5881.16
774.085	7694.48
776.978	9859.26
779.871	12435.2
782.763	15432.8
785.656	18772.3
788.549	22149.3
791.441	25266.5
794.334	28000.3
797.227	30373.2
800.12	33597.4
803.012	38475.2
805.905	45822.1
808.798	55941
811.69	67483.6
814.583	81348.3
817.476	97259.6
820.368	113747
823.261	127238
826.154	131498
829.047	123005
831.939	104584
834.832	82074.2
837.725	61955.1
840.617	46039.6
843.51	34016.8
846.403	25136
849.295	18608.6
852.188	14083.5
855.081	10650.1
857.973	8020.12
860.866	6105.36
863.759	4657.36
866.652	3559.29
869.544	2653.63
872.437	1954
875.33	1397.25
878.222	920.531
881.115	558.335
884.008	265.81
886.9	53.9668
889.793	75.5483
892.686	168.452
895.579	219.049
898.471	235.309
901.364	216.624
904.257	183.761
907.149	144.836
910.042	96.6545
912.935	48.0618
915.827	19.8113
918.72	84.6387
921.613	141.703
924.506	190.425
927.398	238.609
930.291	313.227
933.184	382.091
936.076	442.696
938.969	498.313
941.862	557.501
944.755	626.346
947.647	676.703
950.54	723.039
953.433	737.62
956.325	728.051
959.218	716.975
962.111	675.935
965.003	646.867
967.896	610.939
970.789	577.73
973.682	554.418
976.574	523.577
979.467	506.364
982.36	486.611
985.252	459.404
988.145	434.765
991.038	405.649
993.93	372.273
996.823	361.805
999.716	330.797
1002.61	299.921
1005.5	278.204
1008.39	252.837
1011.29	228.681
1014.18	201.148
1017.07	169.53
1019.97	160.032
1022.86	129.672
1025.75	121.358
1028.64	117.766
1031.54	88.3199
1034.43	81.4646
1037.32	77.7272
1040.21	58.8874
1043.11	52.183
1046	48.7772
1048.89	36.5822
1051.78	12.7416
1054.68	11.1257
1057.57	3.94873
1060.46	6.0954
1063.36	0.975525
1066.25	0.16571
1069.14	2.9566
1072.03	5.27618
1074.93	14.5873
1077.82	27.1085
1080.71	20.6048
1083.6	39.9904
1086.5	25.3028
1089.39	30.0599
1092.28	21.39
1095.17	7.87091
1098.07	11.9776
1100.96	4.15674
1103.85	3.26446
1106.75	0.330078
1109.64	5.35455
1112.53	4.02667
1115.42	4.9043
1118.32	1.40057
1121.21	4.37213
1124.1	13.4801
1126.99	19.5558
1129.89	22.0573
1132.78	31.5981
1135.67	41.8939
1138.57	37.24
1141.46	29.978
1144.35	38.9933
1147.24	27.8016
1150.14	19.4782
1153.03	9.21075
1155.92	8.53876
1158.81	6.24652
1161.71	3.31561
1164.6	3.32873
1167.49	4.77173
1170.38	3.13666
1173.28	3.11639
1176.17	6.87561
1179.06	17.3275
1181.96	18.0956
1184.85	24.5234
1187.74	19.0659
1190.63	19.7034
1193.53	19.7447
1196.42	23.2921
1199.31	22.3795
1202.2	14.7504
1205.1	16.9909
1207.99	16.4787
1210.88	6.58713
1213.78	7.81845
1216.67	9.1456
1219.56	2.00269
1222.45	8.51788
1225.35	0.147858
1228.24	4.04184
1231.13	3.18671
1234.02	3.88666
1236.92	3.8057
1239.81	1.87427
1242.7	0.797455
1245.6	1.99264
1248.49	4.20047
1251.38	15.0293
1254.27	17.9215
1257.17	32.5403
1260.06	36.2927
1262.95	47.5554
1265.84	47.9976
1268.74	49.0777
1271.63	49.4708
1274.52	41.8085
1277.41	37.371
1280.31	29.3641
1283.2	29.235
1286.09	23.7397
1288.99	22.1716
1291.88	13.6912
1294.77	10.7548
1297.66	5.2796
1300.56	2.19887
1303.45	0
