Measurement: Raman, 532 nm, unoriented, Raman Data Processed
Mineral: Vanalite
Rruff sample: R061117
Ideal chemistry: NaAl_8_V_10_O_38_30H_2_O
Locality: Kurumsak deposit, Karatau, south Kazakhstan
Source: Michael Scott
Description: Yellow fragments embedded in epoxy
Raman shift (cm-1)	intensity
109.994	0
113.369	11.774
116.744	109.73
120.118	469.092
123.493	1180.09
126.868	1672.55
130.243	1992.03
133.618	2226.56
136.993	2553.14
140.367	2952.67
143.742	3248.06
147.117	2880.86
150.492	2163.82
153.867	1725.01
157.241	1444.22
160.616	1292.68
163.991	1639.85
167.366	2173.71
170.741	3124.4
174.115	4039.95
177.49	4555.94
180.865	3739.53
184.24	2064.17
187.615	856.983
190.989	556.735
194.364	435.442
197.739	503.902
201.114	356.858
204.489	182.992
207.864	98.7495
211.238	88.0615
214.613	156.05
217.988	3.54639
221.363	94.6187
224.738	280.331
228.113	600.946
231.487	949.003
234.862	1442.37
238.237	1867.15
241.612	2182.41
244.987	2015.43
248.361	2014.52
251.736	2135.53
255.111	2089.44
258.486	1887.62
261.861	1410.18
265.236	1014.31
268.61	597.607
271.985	149.252
275.36	67.4302
278.735	149.95
282.11	87.1807
285.484	17.2412
288.859	371.392
292.234	546.129
295.609	983.853
298.984	1465.66
302.358	2192.59
305.733	2922.45
309.108	3495.91
312.483	3687.38
315.858	3398.92
319.233	3083.11
322.607	2458.34
325.982	1915.1
329.357	1344.2
332.732	1003.74
336.107	715.686
339.481	463.978
342.856	328.812
346.231	245.688
349.606	166.369
352.981	158.381
356.355	133.204
359.73	115.022
363.105	85.0051
366.48	95.1738
369.855	11.0518
373.229	23.8586
376.604	35.5232
379.979	18.1448
383.354	38.2437
386.729	0.782715
390.104	66.3027
393.478	86.0229
396.853	105.55
400.228	74.0791
403.603	73.1016
406.978	105.844
410.353	83.1653
413.727	114.564
417.102	50.0425
420.477	165.669
423.852	213.463
427.227	175.434
430.601	267.401
433.976	363.291
437.351	472.574
440.726	639.146
444.101	789.567
447.475	815.673
450.85	896.544
454.225	855.545
457.6	820.347
460.975	635.756
464.349	440.113
467.724	342.457
471.099	237.033
474.474	175.974
477.849	147.497
481.224	126.248
484.598	81.7478
487.973	0.981445
491.348	9.8916
494.723	11.9829
498.098	48.1658
501.473	59.4898
504.847	17.102
508.222	27.9582
511.597	20.4043
514.972	128.829
518.347	211.165
521.721	348.263
525.096	496.386
528.471	582.789
531.846	657.413
535.221	731.129
538.595	795.851
541.97	801.532
545.345	821.067
548.72	842.015
552.095	870.123
555.47	761.649
558.844	798.24
562.219	824.048
565.594	898.662
568.969	1004.56
572.344	1118.4
575.718	1223.66
579.093	1401.87
582.468	1556.64
585.843	1702.51
589.218	1665.39
592.592	1713.53
595.967	1642.39
599.342	1421.93
602.717	1241.51
606.092	1121.77
609.467	1003.78
612.841	811.263
616.216	775.38
619.591	646.186
622.966	560.29
626.341	478.554
629.715	399.912
633.09	195.711
636.465	88.0889
639.84	30.8394
643.215	7.20801
646.59	63.6435
649.964	15.0654
653.339	25.1182
656.714	11.436
660.089	22.0552
663.464	120.903
666.838	120.803
670.213	95.3247
673.588	88.4512
676.963	131.617
680.338	136.191
683.712	126.004
687.087	115.42
690.462	57.1494
693.837	107.939
697.212	29.2468
700.587	37.7515
703.961	79.1397
707.336	53.0408
710.711	15.1462
714.086	26.8608
717.461	28.2502
720.835	38.2417
724.21	10.1338
727.585	22.623
730.96	33.563
734.335	42.4519
737.71	51.6831
741.084	34.4502
744.459	106.275
747.834	122.033
751.209	137.058
754.584	105.34
757.958	97.2537
761.333	158.737
764.708	144.106
768.083	116.477
771.458	144.314
774.832	109.834
778.207	62.2048
781.582	136.795
784.957	185.817
788.332	140.217
791.707	162.216
795.081	202.758
798.456	225.225
801.831	306.744
805.206	356.692
808.581	510.053
811.955	621.131
815.33	808.098
818.705	1089.81
822.08	1331.77
825.455	1330.6
828.83	1360.41
832.204	1254.44
835.579	1047.17
838.954	843.655
842.329	688.315
845.704	508.507
849.078	360.602
852.453	243.045
855.828	248.054
859.203	150.065
862.578	68.3521
865.952	74.5796
869.327	32.2019
872.702	12.5266
876.077	25.6541
879.452	48.8291
882.827	32.7693
886.201	27.2915
889.576	2.00293
892.951	37.8223
896.326	68.1421
899.701	90.5068
903.075	225.718
906.45	353.312
909.825	438.078
913.2	595.072
916.575	746.876
919.949	1004.12
923.324	1440.15
926.699	1837.18
930.074	2564.96
933.449	2627.02
936.823	2315.51
940.198	2276.18
943.573	2544.93
946.948	2922.03
950.323	2979.75
953.698	2504.91
957.072	1915.28
960.447	1460.18
963.822	1266.79
967.197	1186.61
970.572	1228.34
973.947	1362.18
977.321	1760.22
980.696	2273.13
984.071	2693.97
987.446	3055.15
990.821	3229.43
994.195	3363.69
997.57	3495.96
1000.95	3629.39
1004.32	3379.1
1007.7	2489.46
1011.07	1139.66
1014.44	367.173
1017.82	110.287
1021.19	90.397
1024.57	6.77148
1027.94	21.3491
1031.32	18.5767
1034.69	0.81543
1038.07	58.6958
1041.44	17.5483
1044.82	30.5398
1048.19	2.51733
1051.57	3.83643
1054.94	54.7229
1058.32	19.4587
1061.69	9.41968
1065.07	7.99707
1068.44	37.2173
1071.82	9.52173
1075.19	48.554
1078.57	18.894
1081.94	27.3145
1085.32	40.2353
1088.69	66.8852
1092.07	71.1555
1095.44	104.28
1098.82	133.619
1102.19	48.9067
1105.56	37.5605
1108.94	66.9416
1112.31	88.3415
1115.69	97.897
1119.06	30.104
1122.44	86.4343
1125.81	68.8064
1129.19	91.9668
1132.56	95.0005
1135.94	148.44
1139.31	90.3909
1142.69	85.4226
1146.06	38.8506
1149.44	69.9983
1152.81	56.2476
1156.19	24.7554
1159.56	89.5503
1162.94	87.0618
1166.31	68.8691
1169.69	5.46265
1173.06	23.4497
1176.43	20.604
1179.81	35.2898
1183.18	62.8916
1186.56	27.1352
1189.93	25.7954
1193.31	46.0952
1196.68	44.7205
1200.06	1.78686
1203.43	5.57227
1206.81	73.8049
1210.18	9.45532
1213.56	113.185
1216.93	102.161
1220.31	47.8164
1223.68	120.29
1227.06	102.013
1230.43	116.256
1233.81	21.2388
1237.18	48.9517
1240.56	11.5098
1243.93	47.0366
1247.31	84.376
1250.68	5.92529
1254.06	4.49072
1257.43	95.4634
1260.81	31.2602
1264.18	1.82861
1267.56	32.1162
1270.93	51.2305
1274.31	26.3452
1277.68	57.8188
1281.06	51.8364
1284.43	82.7705
1287.8	52.1895
1291.18	14.9316
1294.55	47.8218
