Measurement: Raman, 780 nm, unoriented, Raman Data Processed
Mineral: Vanadinite
Rruff sample: R050530
Ideal chemistry: Pb_5_(VO_4_)_3_Cl
Locality: Hillsboro, Sierra County, New Mexico, USA
Source: University of Arizona Mineral Museum
Description: Yellow hexagonal prisms
Measured chemistry: Pb_5.00_((V_0.93_As_0.07_)O_4_)_3_Cl_1.00_
Raman shift (cm-1)	intensity
149.749	0
152.642	12.1594
155.534	25.7985
158.427	13.6504
161.32	23.4183
164.212	65.5721
167.105	129.369
169.998	216.603
172.89	289.225
175.783	347.002
178.676	400.724
181.569	462.629
184.461	484.638
187.354	479.84
190.247	439.462
193.139	366.387
196.032	276.395
198.925	185.581
201.817	108.231
204.71	39.1727
207.603	2.35785
210.495	17.5788
213.388	14.8039
216.281	15.7839
219.174	14.6981
222.066	15.3386
224.959	6.91217
227.852	3.34576
230.744	3.20825
233.637	1.17255
236.53	9.3819
239.423	8.11218
242.315	6.94971
245.208	4.57373
248.101	5.87524
250.993	7.68707
253.886	9.43768
256.779	20.2517
259.671	31.5357
262.564	46.7493
265.457	71.2228
268.349	94.7894
271.242	141.878
274.135	193.929
277.028	274.353
279.92	395.362
282.813	566.919
285.706	770.383
288.598	948.599
291.491	985.247
294.384	930.606
297.276	945.061
300.169	1092.29
303.062	1385.14
305.955	1799.37
308.847	2353.23
311.74	3125.87
314.633	4192.03
317.525	5495.85
320.418	6472.67
323.311	6256.17
326.204	5104
329.096	4079.07
331.989	3301.16
334.882	2524.11
337.774	1903.11
340.667	1573.92
343.56	1566.21
346.452	1829.91
349.345	2356.78
352.238	2882.7
355.13	2773.99
358.023	2166.66
360.916	1741.08
363.809	1524.67
366.701	1171.68
369.594	728.715
372.487	385.136
375.379	176.978
378.272	62.7451
381.165	8.63763
384.058	40.4653
386.95	41.8508
389.843	17.7929
392.736	14.075
395.628	37.2454
398.521	48.2708
401.414	66.5936
404.306	106.177
407.199	179.062
410.092	265.942
412.985	342.38
415.877	336.651
418.77	267.99
421.663	191.887
424.555	113.983
427.448	59.0157
430.341	29.7233
433.233	15.0605
436.126	9.09335
439.019	3.71655
441.911	1.55127
444.804	6.03278
447.697	8.07382
450.59	6.43373
453.482	2.34345
456.375	1.39389
459.268	4.04666
462.16	6.59993
465.053	10.2783
467.946	15.1027
470.839	17.7972
473.731	22.0082
476.624	26.508
479.517	29.8493
482.409	35.2294
485.302	37.5127
488.195	41.9506
491.087	44.9551
493.98	47.383
496.873	47.0136
499.765	43.6817
502.658	42.9776
505.551	39.5683
508.444	34.2669
511.336	30.9268
514.229	29.177
517.122	28.7858
520.014	25.6473
522.907	24.8726
525.8	21.8245
528.692	19.8187
531.585	18.1705
534.478	16.9524
537.371	13.7558
540.263	12.1758
543.156	9.9624
546.049	9.47963
548.941	7.62601
551.834	7.38421
554.727	4.81825
557.62	2.88329
560.512	3.17782
563.405	1.37422
566.298	0.055939
569.19	0.356186
572.083	1.0397
574.976	0.510681
577.868	2.6697
580.761	3.09842
583.654	4.37788
586.546	7.4034
589.439	8.1759
592.332	10.9079
595.225	12.7135
598.117	15.3253
601.01	16.5938
603.903	21.4695
606.795	23.71
609.688	26.8863
612.581	29.9931
615.473	32.9336
618.366	36.393
621.259	39.1774
624.152	40.0462
627.044	45.7452
629.937	49.3636
632.83	55.0995
635.722	59.0425
638.615	64.4855
641.508	67.5601
644.4	68.267
647.293	63.4635
650.186	57.7253
653.079	52.9951
655.971	47.533
658.864	41.6471
661.757	35.368
664.649	30.1186
667.542	24.6264
670.435	19.9376
673.327	13.0447
676.22	6.24608
679.113	3.11902
682.006	1.50935
684.898	2.1799
687.791	2.56905
690.684	0.240265
693.576	4.17198
696.469	5.92822
699.362	4.2393
702.255	3.54719
705.147	21.6212
708.04	51.6213
710.933	89.2818
713.825	142.965
716.718	215.843
719.611	279.269
722.503	290.913
725.396	229.723
728.289	135.224
731.182	60.3662
734.074	10.7089
736.967	24.5669
739.86	36.1645
742.752	39.6043
745.645	31.6802
748.538	4.55145
751.43	38.1564
754.323	98.0043
757.216	180.352
760.109	288.182
763.001	433.468
765.894	613.176
768.787	837.669
771.679	1105.74
774.572	1432.28
777.465	1811.84
780.357	2233.92
783.25	2669.67
786.143	3117.06
789.035	3477.54
791.928	3707.3
794.821	3722.51
797.714	3676.69
800.606	3713.58
803.499	3948.45
806.392	4439.33
809.284	5110.02
812.177	5872.55
815.07	6770.01
817.962	7831.93
820.855	8794.18
823.748	9373.66
826.641	9266.24
829.533	8288.51
832.426	6748.88
835.319	5156.29
838.211	3798.01
841.104	2755.18
843.997	1992.88
846.889	1442.51
849.782	1042.2
852.675	756.582
855.568	545.746
858.46	392.132
861.353	277.909
864.246	196.1
867.138	135.644
870.031	86.74
872.924	55.3004
875.817	25.2178
878.709	4.88809
881.602	5.63611
884.495	13.3986
887.387	20.1776
890.28	19.9425
893.173	19.1247
896.065	17.8316
898.958	13.3466
901.851	7.16219
904.744	4.77252
907.636	4.10994
910.529	9.40569
913.422	16.0443
916.314	23.3156
919.207	30.7822
922.1	36.2657
924.992	42.109
927.885	48.2509
930.778	53.6678
933.67	60.2693
936.563	63.8087
939.456	71.5623
942.348	72.3394
945.241	74.8881
948.134	73.6329
951.027	71.4448
953.919	65.3366
956.812	61.6926
959.705	57.2431
962.597	53.7508
965.49	49.4627
968.383	46.0343
971.275	44.0861
974.168	40.9252
977.061	38.7625
979.954	35.6153
982.846	34.6658
985.739	31.0244
988.632	29.5737
991.524	26.3644
994.417	24.0939
997.31	21.1717
1000.2	20.0343
1003.1	17.0489
1005.99	14.6621
1008.88	12.1825
1011.77	10.9796
1014.67	10.0047
1017.56	7.73921
1020.45	6.73741
1023.34	6.37176
1026.24	5.31562
1029.13	6.66374
1032.02	5.7309
1034.91	4.08941
1037.81	6.81255
1040.7	5.59274
1043.59	4.20666
1046.49	3.46407
1049.38	2.66635
1052.27	2.17204
1055.16	0.726517
1058.06	1.21719
1060.95	0.453552
1063.84	0.476822
1066.73	0.225746
1069.63	0.220871
1072.52	2.20544
1075.41	4.05933
1078.31	5.56753
1081.2	9.04062
1084.09	6.28178
1086.98	6.55922
1089.88	5.05064
1092.77	3.84592
1095.66	4.32295
1098.55	2.7255
1101.45	2.22559
1104.34	0.566673
1107.23	0.595207
1110.12	0.024208
1113.02	0.791023
1115.91	0.69117
1118.8	0.542877
1121.7	0.1259
1124.59	0.837669
1127.48	1.29338
1130.37	0.952805
1133.27	1.66062
1136.16	1.01207
1139.05	2.79156
1141.94	1.96955
1144.84	1.0488
1147.73	0.575516
1150.62	0.585243
1153.52	1.1304
1156.41	0.293152
1159.3	1.58107
1162.19	1.07065
1165.09	0.365433
1167.98	0.577614
1170.87	1.03782
1173.77	5.88842
1176.66	2.93548
1179.55	4.73141
1182.44	4.29592
1185.34	5.15485
1188.23	6.06758
1191.12	5.22177
1194.01	6.99282
1196.91	5.84401
1199.8	5.86676
1202.69	6.95496
1205.58	5.88078
1208.48	5.5496
1211.37	4.98202
1214.26	5.14342
1217.15	2.90762
1220.05	2.00995
1222.94	1.252
1225.83	0.274796
1228.73	0.751488
1231.62	0.247032
1234.51	1.05036
1237.4	2.50442
1240.3	3.25242
1243.19	4.04127
1246.08	5.7772
1248.97	5.35716
1251.87	6.5754
1254.76	7.74512
1257.65	6.8021
1260.55	6.48085
1263.44	4.90343
1266.33	5.31426
1269.22	4.40801
1272.12	2.85595
1275.01	2.27681
1277.9	3.82545
1280.79	0.598824
1283.69	2.19232
