Measurement: Raman, 532 nm, unoriented, Raman Data Processed
Mineral: Vanadinite
Rruff sample: R050171
Ideal chemistry: Pb_5_(VO_4_)_3_Cl
Locality: Hamburg mine, La Paz County, Arizona, USA
Source: Marcus Origlieri
Description: Red prismatic hexagonal crystals
Measured chemistry: Pb_5.00_((V_0.89_As_0.11_)O_4_)_3_Cl_1.00_
Raman shift (cm-1)	intensity
119.78	0
122.673	12.3702
125.566	92.1684
128.458	196.219
131.351	350.825
134.244	459.618
137.137	544.604
140.029	588.459
142.922	589.455
145.815	582.154
148.707	543.179
151.6	502.705
154.493	465.297
157.386	409.359
160.278	371.633
163.171	344.263
166.064	340.52
168.956	343.972
171.849	340.587
174.742	328.305
177.634	311.982
180.527	294.348
183.42	247.431
186.312	220.774
189.205	176.433
192.098	139.802
194.991	114.236
197.883	86.7333
200.776	69.1599
203.669	47.4596
206.561	32.1598
209.454	22.4308
212.347	15.0358
215.239	9.43207
218.132	0.345154
221.025	7.60187
223.918	12.4828
226.81	10.1288
229.703	13.2914
232.596	19.5263
235.488	23.3225
238.381	17.4132
241.274	20.4984
244.167	15.1129
247.059	10.9458
249.952	8.57916
252.845	13.63
255.737	47.8124
258.63	71.5995
261.523	129.819
264.415	192.431
267.308	288.338
270.201	415.763
273.093	571.901
275.986	759.124
278.879	964.765
281.772	1196.65
284.664	1452.19
287.557	1682.01
290.45	1793.8
293.342	1718.53
296.235	1532.17
299.128	1389.3
302.02	1368.35
304.913	1477.89
307.806	1681.25
310.699	1951.48
313.591	2282.48
316.484	2657.17
319.377	2987.09
322.269	3020.08
325.162	2628.44
328.055	1996.07
330.947	1429.01
333.84	1043.08
336.733	788.518
339.625	651.631
342.518	619.486
345.411	673.479
348.304	804.49
351.196	985.34
354.089	1145.11
356.982	1322.37
359.874	1539.74
362.767	1748.28
365.66	1734.3
368.553	1381.18
371.445	929.458
374.338	577.982
377.231	341.216
380.123	199.688
383.016	101.499
385.909	54.2176
388.801	26.2109
391.694	6.84711
394.587	0.433167
397.479	6.75378
400.372	8.79303
403.265	2.33499
406.158	6.92935
409.05	14.9352
411.943	13.9748
414.836	10.3723
417.728	2.60425
420.621	6.68671
423.514	15.2854
426.406	18.318
429.299	17.8163
432.192	8.71512
435.085	8.53125
437.977	4.85466
440.87	0.169449
443.763	5.3018
446.655	11.2362
449.548	20.5425
452.441	25.2926
455.334	32.0461
458.226	37.0499
461.119	41.0691
464.012	45.3047
466.904	52.0196
469.797	57.3609
472.69	60.8856
475.582	62.861
478.475	68.7625
481.368	66.1936
484.26	65.9148
487.153	61.9613
490.046	56.3935
492.939	54.7114
495.831	48.2121
498.724	41.6885
501.617	38.8789
504.509	36.8755
507.402	33.7966
510.295	33.4748
513.188	31.1199
516.08	27.9167
518.973	24.1396
521.866	24.6231
524.758	23.9664
527.651	20.4566
530.544	20.5009
533.436	15.8083
536.329	16.0242
539.222	12.9598
542.115	12.077
545.007	9.68839
547.9	7.80344
550.793	7.25319
553.685	7.8319
556.578	6.27282
559.471	4.73322
562.363	2.54314
565.256	5.90495
568.149	5.39091
571.042	6.99184
573.934	5.56833
576.827	6.41254
579.72	6.2871
582.612	9.03198
585.505	6.70272
588.398	10.2026
591.29	15.6299
594.183	13.1677
597.076	16.6076
599.968	18.8754
602.861	21.8683
605.754	21.9931
608.646	27.667
611.539	27.0925
614.432	35.6029
617.325	35.3721
620.217	42.2745
623.11	47.1362
626.003	49.5714
628.895	51.1236
631.788	51.9429
634.681	47.9037
637.573	44.3322
640.466	46.065
643.359	43.1231
646.252	35.8493
649.144	33.4049
652.037	32.3424
654.93	26.6964
657.822	22.151
660.715	16.7293
663.608	10.5976
666.5	5.05196
669.393	3.3846
672.286	2.49065
675.179	4.31663
678.071	1.25668
680.964	4.72063
683.857	20.7518
686.75	38.4129
689.642	57.3684
692.535	64.7987
695.428	82.1316
698.32	95.0278
701.213	118.914
704.106	154.331
706.998	189.678
709.891	235.347
712.784	279.889
715.677	321.806
718.569	336.397
721.462	311.696
724.355	253.988
727.247	166.483
730.14	91.9759
733.033	33.1131
735.925	8.35584
738.818	38.212
741.711	55.8314
744.604	53.3282
747.496	43.8604
750.389	11.9753
753.282	26.1873
756.174	87.6284
759.067	163.679
761.96	250.852
764.852	370.131
767.745	517.745
770.638	690.848
773.53	885.125
776.423	1132.99
779.316	1392.02
782.209	1680.16
785.101	1970.88
787.994	2270.97
790.887	2580.74
793.779	2934.87
796.672	3310.58
799.565	3783.06
802.457	4381.36
805.35	5173.49
808.243	6097.28
811.135	7144.49
814.028	8228.41
816.921	9379.33
819.814	10437.5
822.706	11130.5
825.599	11222.6
828.492	10596
831.384	9452.74
834.277	7988.13
837.17	6485.65
840.062	5142.08
842.955	4029.7
845.848	3121.67
848.741	2400.61
851.633	1855.48
854.526	1439.22
857.419	1114.43
860.311	854.862
863.204	656.023
866.097	510.788
868.99	394.795
871.882	310.383
874.775	233.955
877.668	177.052
880.56	118.994
883.453	78.7429
886.346	37.9033
889.238	9.70593
892.131	6.5257
895.024	18.7899
897.917	24.6666
900.809	28.0616
903.702	30.6375
906.595	23.7921
909.487	18.9861
912.38	10.7928
915.273	3.65894
918.165	1.03528
921.058	8.23581
923.951	15.1747
926.843	19.3578
929.736	25.9442
932.629	35.8109
935.522	44.684
938.414	50.7704
941.307	60.0482
944.2	63.854
947.092	74.7666
949.985	84.8472
952.878	89.6906
955.77	90.5208
958.663	90.062
961.556	81.9893
964.449	80.3927
967.341	78.053
970.234	74.6047
973.127	70.9462
976.019	70.096
978.912	66.9625
981.805	64.9844
984.697	60.8989
987.59	58.931
990.483	54.9324
993.375	53.2335
996.268	50.7177
999.161	47.3212
1002.05	44.6173
1004.95	43.1195
1007.84	39.1578
1010.73	37.9379
1013.62	36.443
1016.52	32.1508
1019.41	27.0348
1022.3	26.7974
1025.19	23.5109
1028.09	19.8524
1030.98	19.4677
1033.87	19.161
1036.77	18.1108
1039.66	15.6859
1042.55	13.7741
1045.44	12.8461
1048.34	13.6268
1051.23	12.6658
1054.12	8.62627
1057.02	8.70792
1059.91	4.78624
1062.8	6.72917
1065.69	6.48088
1068.59	8.44478
1071.48	6.79164
1074.37	3.94794
1077.26	7.845
1080.16	6.81248
1083.05	6.72624
1085.94	0.911621
1088.84	3.37541
1091.73	2.02576
1094.62	1.98801
1097.51	0.784195
1100.4	0.018188
1103.3	0.510239
1106.19	0.833923
1109.08	0.755859
1111.98	2.05998
1114.87	0.207779
1117.76	2.60931
1120.65	1.30005
1123.55	0.031128
1126.44	2.75543
1129.33	2.54715
1132.22	1.83664
1135.12	0.439087
1138.01	3.82564
1140.9	2.6698
1143.8	2.68712
1146.69	1.39868
1149.58	2.28723
1152.47	1.25362
1155.37	0.36882
1158.26	0.795486
1161.15	1.69373
1164.05	0.428604
1166.94	1.00798
1169.83	1.38646
1172.72	3.396
1175.62	1.53415
1178.51	0.07045
1181.4	2.57985
1184.29	3.06726
1187.19	0.064522
1190.08	0.529442
