Measurement: Raman, 514 nm, unoriented, Raman Data Processed
Mineral: Vanadinite
Rruff sample: R050189
Ideal chemistry: Pb_5_(VO_4_)_3_Cl
Locality: Puzzler mine, Yuma County, Arizona, USA
Source: Dave Bunk Minerals
Description: Red and green hexagonal prisms
Measured chemistry: Pb_5.00_(V_1.00_O_4_)_3_Cl_1.00_
Raman shift (cm-1)	intensity
52.866	0
57.065	35.678
61.262	20.821
65.458	87.626
69.651	1157.81
73.842	2617.39
78.031	4243.59
82.218	6610.69
86.404	8540.28
90.587	12100
94.768	12645.2
98.947	7514.65
103.124	4285.54
107.3	3155.48
111.473	2579.89
115.644	2277.33
119.813	1671.56
123.981	1455.4
128.146	1537.7
132.309	1732.39
136.47	2175.29
140.63	2462.68
144.787	2664.6
148.942	2614.37
153.096	2395.22
157.247	2209.44
161.396	1994.95
165.544	1848.72
169.689	1841.76
173.833	1876.01
177.974	1798.44
182.114	1827.98
186.251	1703.64
190.387	1579.44
194.52	1271.43
198.652	980.615
202.782	742.063
206.909	578.818
211.035	383.737
215.159	263.757
219.281	191.582
223.4	164.516
227.518	123.087
231.634	24.348
235.748	8.855
239.86	24.979
243.97	55.351
248.079	58.236
252.185	54.017
256.289	48.272
260.391	57.693
264.492	21.197
268.59	41.122
272.687	132.228
276.781	262.028
280.874	355.444
284.964	546.421
289.053	698.912
293.14	790.88
297.225	912.277
301.308	1192.07
305.389	1700.23
309.468	2495.77
313.545	3907.42
317.62	6123.68
321.693	7902.89
325.765	8659.31
329.834	9129.39
333.902	7407.41
337.967	5282.99
342.031	4846.98
346.093	6998.54
350.153	11343
354.21	11426.9
358.267	7270.35
362.321	4314.63
366.373	2715.03
370.423	1881.83
374.471	1317.45
378.518	996.995
382.563	852.406
386.605	844.891
390.646	1090.76
394.685	1152.87
398.722	1079.17
402.757	1150.76
406.79	1512.43
410.821	2216.76
414.851	2200.14
418.878	1647.99
422.904	1119.21
426.927	712.543
430.949	486.127
434.969	403.936
438.987	279.057
443.003	202.421
447.018	179.949
451.03	145.426
455.041	107.198
459.049	81.654
463.056	54.89
467.061	49.896
471.064	36.665
475.065	23.828
479.064	30.355
483.062	25.744
487.057	15.229
491.051	15.099
495.043	0.369
499.032	16.057
503.02	19.223
507.007	18.893
510.991	12.104
514.973	15.9
518.954	9.279
522.933	18.195
526.91	5.673
530.885	10.713
534.858	5.332
538.829	13.504
542.799	4.227
546.766	22.512
550.732	31.409
554.696	21.905
558.658	10.961
562.618	11.571
566.576	3.268
570.533	4.38
574.488	1.535
578.44	2.825
582.391	10.271
586.341	2.205
590.288	19.053
594.233	22.84
598.177	18.051
602.119	37.928
606.059	48.502
609.997	49.734
613.933	103.773
617.868	112.498
621.801	81.962
625.731	114.168
629.66	122.125
633.588	130.1
637.513	133.335
641.437	126.377
645.358	107.009
649.278	122.453
653.196	99.869
657.113	126.988
661.027	121.452
664.94	147.566
668.851	159.205
672.76	175.784
676.667	205.471
680.572	269.385
684.476	278.581
688.378	323.331
692.278	371.001
696.176	437.944
700.072	518.174
703.967	654.887
707.86	912.136
711.751	1248.54
715.64	1997.96
719.527	2782.72
723.413	3291.76
727.297	3457.99
731.179	3510.47
735.059	3383.47
738.937	3318.63
742.814	3367.24
746.689	3583.77
750.562	4050.13
754.433	4764.19
758.303	5881.43
762.17	7099.21
766.036	8845.88
769.901	11375.2
773.763	14989.8
777.624	19305.4
781.482	24591.3
785.339	29395.3
789.195	31779.5
793.048	31457.9
796.9	29869.6
800.75	29112.5
804.598	30721.6
808.445	33218
812.289	38213.7
816.132	44866.7
819.973	52395
823.813	57285.9
827.65	54668.3
831.486	45597
835.32	34463.1
839.152	24750.5
842.983	17772.3
846.812	12917.4
850.639	9832.43
854.464	7468.79
858.288	5782.57
862.11	4741.62
865.93	3864.72
869.748	3252.03
873.564	2727.3
877.379	2381.35
881.192	2091.28
885.004	1798.54
888.813	1622.11
892.621	1473.98
896.427	1290.11
900.232	1142.53
904.034	1055.23
907.835	958.163
911.634	887.315
915.432	798.677
919.227	767.246
923.021	676.013
926.813	562.973
930.604	457.123
934.393	430.461
938.18	373.983
941.965	297.686
945.749	240.567
949.53	204.624
953.311	167.857
957.089	131.258
960.866	112.825
964.641	62.563
968.414	28.467
972.185	4.459
975.955	28.222
979.723	21.872
983.49	25.437
987.254	22.954
991.017	38.497
994.779	61.126
998.538	32.895
1002.3	35.772
1006.05	66.697
1009.81	35.721
1013.56	36.858
1017.31	34.105
1021.06	10.567
1024.81	15.266
1028.55	58.007
1032.3	49.795
1036.04	72.63
1039.78	95.505
1043.52	132.417
1047.26	110.363
1050.99	153.344
1054.73	147.35
1058.46	151.371
1062.19	192.399
1065.92	201.429
1069.65	220.456
1073.37	230.476
1077.1	277.483
1080.82	298.47
1084.54	316.432
1088.26	321.366
1091.97	346.283
1095.69	325.22
1099.4	282.463
1103.12	275.529
1106.83	260.537
1110.54	267.398
1114.24	311.998
1117.95	262.359
1121.65	312.961
1125.35	322.691
1129.06	268.063
1132.75	268.917
1136.45	273.466
1140.15	245.011
1143.84	247.56
1147.53	218.879
1151.22	220.68
1154.91	185.869
1158.6	183.754
1162.28	172.38
1165.97	174.831
1169.65	185.271
1173.33	171.733
1177.01	160.728
1180.69	178.682
1184.36	162.01
1188.04	178.071
1191.71	152.078
1195.38	153.254
1199.05	175.337
1202.71	183.889
1206.38	139.951
1210.04	145.936
1213.71	136.706
1217.37	113.429
1221.03	86.925
1224.68	78.138
1228.34	91.197
1231.99	58.973
1235.65	51.771
1239.3	43.611
1242.95	35.146
1246.59	24.665
1250.24	33.802
1253.88	24.822
1257.53	23.877
1261.17	18.45
1264.81	5.796
1268.45	0.896
1272.08	9.169
1275.72	5.542
1279.35	7.989
1282.98	2.292
1286.61	0.486
1290.24	7.606
1293.87	3.357
1297.49	15.397
1301.11	7.443
1304.73	7.205
1308.36	25.889
1311.97	9.5
1315.59	0.02
1319.2	12.286
1322.82	20.492
1326.43	25.365
1330.04	7.148
1333.65	6.766
1337.26	19.23
1340.86	6.547
1344.47	15.681
1348.07	21.734
1351.67	18.541
1355.27	38.341
1358.87	23.227
1362.46	28.632
1366.06	52.254
1369.65	40.391
1373.24	48.337
1376.83	30.957
1380.42	22.322
1384	35.687
1387.59	27.836
1391.17	50.612
1394.75	54.213
1398.33	32
1401.91	50.706
1405.49	41.864
1409.06	54.986
1412.64	41.298
1416.21	42.341
1419.78	63.996
1423.35	59.492
1426.91	61.659
1430.48	65.188
1434.05	69.472
1437.61	72.436
1441.17	66.831
1444.73	77.387
1448.29	68.075
1451.84	76.917
1455.4	91.917
1458.95	72.385
1462.5	53.793
1466.05	57.36
1469.6	48.561
1473.15	34.586
1476.69	33.235
1480.24	33.771
1483.78	23.34
1487.32	33.852
1490.86	24.332
1494.39	8.983
1497.93	20.867
1501.46	26.913
1505	3.263
1508.53	24.241
1512.06	9.919
1515.59	13.166
1519.11	19.848
1522.64	23.868
