Measurement: Raman, 780 nm, unoriented, Raman Data Processed
Mineral: Vandenbrandeite
Rruff sample: R080113
Ideal chemistry: CuUO_2_(OH)_4_
Locality: Musonoi mine, Kolwezi, Katanga, Democratic Republic of Congo
Source: William W. Pinch
Description: Aggregates of dark-green bladed crystals
Raman shift (cm-1)	intensity
137.36	0
140.253	0.447176
143.146	1.52644
146.038	4.49348
148.931	7.5449
151.824	6.53272
154.716	6.37902
157.609	8.05969
160.502	5.27763
163.395	4.77338
166.287	7.69161
169.18	12.7239
172.073	17.2064
174.965	24.1937
177.858	30.1469
180.751	35.6154
183.643	36.1248
186.536	20.1832
189.429	6.815
192.322	1.57826
195.214	0.319655
198.107	1.27407
201	0.106777
203.892	0.321288
206.785	1.99361
209.678	2.69468
212.571	4.04605
215.463	6.64962
218.356	7.33861
221.249	7.72835
224.141	4.76277
227.034	1.79993
229.927	1.05923
232.819	2.17024
235.712	1.92877
238.605	4.303
241.498	5.80577
244.39	8.34026
247.283	10.186
250.176	10.5344
253.068	4.59562
255.961	2.38314
258.854	1.01558
261.746	1.30657
264.639	0.688329
267.532	1.22183
270.425	2.32527
273.317	2.83835
276.21	3.32601
279.103	3.82472
281.995	2.49621
284.888	0.841753
287.781	0.358203
290.673	0.369946
293.566	0.519515
296.459	0.486317
299.351	0.856588
302.244	0.997683
305.137	1.86258
308.03	2.33373
310.922	3.9834
313.815	5.17489
316.708	6.48728
319.6	7.796
322.493	7.95468
325.386	6.00122
328.279	5.48197
331.171	5.99556
334.064	5.72197
336.957	6.99209
339.849	6.70701
342.742	6.10129
345.635	5.46451
348.527	4.88719
351.42	3.978
354.313	3.77908
357.205	3.65489
360.098	3.39642
362.991	3.11157
365.884	2.84092
368.776	2.50102
371.669	1.61534
374.562	1.561
377.454	0.84721
380.347	0.724941
383.24	0.198553
386.132	0.921055
389.025	0.712587
391.918	0.099436
394.81	0.775298
397.703	0.071299
400.596	0.446444
403.489	0.123747
406.381	0.374142
409.274	0.09192
412.167	0.073123
415.059	0.277464
417.952	0.856686
420.845	1.38904
423.738	0.990634
426.63	2.46321
429.523	2.40084
432.416	2.05224
435.308	2.26751
438.201	1.72308
441.094	0.846922
443.986	0.820812
446.879	1.3495
449.772	1.34116
452.665	1.74915
455.557	3.44638
458.45	4.45824
461.343	5.79561
464.235	6.42845
467.128	7.85925
470.021	7.05371
472.913	5.02621
475.806	2.7208
478.699	2.3978
481.592	1.57046
484.484	0.947706
487.377	1.70399
490.27	1.35298
493.162	1.42201
496.055	1.71807
498.948	2.24307
501.841	1.33145
504.733	1.51004
507.626	1.58918
510.519	1.55574
513.411	1.99128
516.304	1.4918
519.197	0.843639
522.089	0.87333
524.982	0.443241
527.875	0.197216
530.768	0.323973
533.66	0.019242
536.553	0.830566
539.446	0.602445
542.338	1.07972
545.231	1.43077
548.124	1.06172
551.016	1.04343
553.909	2.00907
556.802	2.03482
559.694	2.85962
562.587	2.09248
565.48	1.94637
568.373	1.3605
571.265	0.717791
574.158	0.233196
577.051	0.056029
579.943	0.266835
582.836	0.09494
585.729	0.633863
588.621	0.027175
591.514	0.557976
594.407	0.386045
597.299	0.28546
600.192	0.232608
603.085	0.11428
605.978	0.345158
608.87	0.521303
611.763	0.450056
614.656	0.235541
617.548	0.762952
620.441	0.775525
623.334	0.660276
626.226	0.687225
629.119	1.15577
632.012	0.757871
634.905	0.403124
637.797	0.702129
640.69	1.15195
643.583	1.50036
646.475	1.80509
649.368	1.55843
652.261	2.10496
655.154	2.61238
658.046	3.54876
660.939	3.95121
663.832	4.42687
666.724	3.65999
669.617	2.34789
672.51	1.88694
675.402	1.41269
678.295	1.50181
681.188	0.919917
684.081	0.742867
686.973	0.930166
689.866	0.06845
692.759	0.066566
695.651	1.01004
698.544	0.121129
701.437	0.157925
704.329	0.155186
707.222	0.20988
710.115	0.193783
713.008	0.243284
715.9	0.171669
718.793	0.079286
721.686	0.344494
724.578	0.643256
727.471	0.084085
730.364	0.063031
733.256	0.758245
736.149	0.575224
739.042	0.304368
741.934	0.057819
744.827	0.448108
747.72	0.089634
750.613	0.439092
753.505	0.590976
756.398	0.215238
759.291	0.983342
762.183	1.46113
765.076	1.36401
767.969	1.54104
770.861	2.31905
773.754	3.10413
776.647	3.69364
779.54	4.9493
782.432	7.67344
785.325	9.8927
788.218	16.5741
791.11	31.946
794.003	50.1897
796.896	73.16
799.788	108.261
802.681	151.343
805.574	170.165
808.467	108.03
811.359	45.7981
814.252	23.0735
817.145	13.5898
820.037	9.71923
822.93	6.65627
825.823	5.33925
828.716	3.72208
831.608	2.38098
834.501	2.17819
837.394	1.05299
840.286	0.697187
843.179	0.3677
846.072	0.080881
848.964	0.603793
851.857	0.302879
854.75	0.530815
857.643	0.27593
860.535	0.747205
863.428	0.597564
866.321	0.382702
869.213	0.524332
872.106	0.716997
874.999	0.534077
877.891	0.678141
880.784	0.854628
883.677	0.619723
886.569	0.337625
889.462	0.603779
892.355	0.33714
895.248	0.150343
898.14	0.230929
901.033	0.199224
903.926	0.01592
906.818	0.101898
909.711	0.126723
912.604	0.100178
915.496	0.145463
918.389	0.422369
921.282	0.089535
924.175	0.055218
927.067	0.175973
929.96	0.309427
932.853	0.257092
935.745	0.503092
938.638	0.901787
941.531	0.774793
944.423	1.03178
947.316	0.963253
950.209	1.24737
953.102	1.40094
955.994	1.28975
958.887	0.949054
961.78	1.16288
964.672	1.77027
967.565	1.46035
970.458	1.32997
973.351	0.469641
976.243	0.877147
979.136	0.765815
982.029	0.93603
984.921	0.406395
987.814	0.200773
990.707	0.785206
993.599	0.45626
996.492	0.307232
999.385	0.469939
1002.28	0.537818
1005.17	0.385435
1008.06	0.309834
1010.96	0.566414
1013.85	0.951851
1016.74	0.342454
1019.63	0.247429
1022.53	0.455318
1025.42	0.465263
1028.31	0.75789
1031.2	0.235427
1034.1	0.195962
1036.99	0.301881
1039.88	0.599005
1042.78	0.417489
1045.67	0.529361
1048.56	0.142898
1051.45	0.71802
1054.35	0.269648
1057.24	0.540423
1060.13	0.213145
1063.02	0.976555
1065.92	0.352956
1068.81	0.052164
1071.7	0.982336
1074.6	0.469797
1077.49	0.33903
1080.38	0.060334
1083.27	0.446286
1086.17	0.873135
1089.06	0.021546
1091.95	0.414634
1094.84	0.61978
1097.74	0.545726
1100.63	0.852594
1103.52	0.619395
1106.41	0.451825
1109.31	0.6441
1112.2	0.578432
1115.09	0.275622
1117.98	0.788136
1120.88	0.621073
1123.77	0.103175
1126.66	0.042167
1129.56	0.231015
1132.45	0.388435
1135.34	0.425553
1138.23	0.708007
1141.13	0.02522
1144.02	0.244834
1146.91	0.744381
1149.81	0.02875
1152.7	0.799976
1155.59	0.176464
1158.48	0.628476
1161.38	0.610306
1164.27	0.648372
1167.16	0.70601
1170.05	0.826427
1172.95	0.454593
1175.84	0.250247
1178.73	0.746758
1181.62	0.472317
1184.52	0.460285
1187.41	0.458484
1190.3	0.049454
1193.2	0.571943
1196.09	0.067595
1198.98	0.054357
1201.87	0.640942
1204.77	0.669242
1207.66	0.589875
1210.55	0.493064
1213.44	0.523633
1216.34	0.413405
1219.23	0.498788
1222.12	0.877139
1225.02	0.301787
1227.91	0.371484
1230.8	0.57122
1233.69	0.538187
1236.59	0.473447
1239.48	0.538989
1242.37	0.21278
1245.26	0.717494
1248.16	0.654293
1251.05	0.766398
1253.94	0.527158
1256.84	0.890916
1259.73	0.509989
1262.62	0.077562
1265.51	0.4322
1268.41	0.421432
1271.3	0.736018
1274.19	0.680416
1277.08	0.255017
1279.98	0.505893
1282.87	0.353923
1285.76	0.338998
