Measurement: Raman, 532 nm, unoriented, Raman Data Processed
Mineral: Vandenbrandeite
Rruff sample: R080113
Ideal chemistry: CuUO_2_(OH)_4_
Locality: Musonoi mine, Kolwezi, Katanga, Democratic Republic of Congo
Source: William W. Pinch
Description: Aggregates of dark-green bladed crystals
Raman shift (cm-1)	intensity
137.19	0
140.565	18.0919
143.94	68.691
147.315	189.459
150.69	132.988
154.065	27.8147
157.439	37.6745
160.814	23.25
164.189	48.6286
167.564	105.57
170.939	176.395
174.313	262.192
177.688	365.857
181.063	482.468
184.438	423.869
187.813	140.417
191.187	35.256
194.562	0.001602
197.937	10.6554
201.312	7.45547
204.687	3.33347
208.061	16.4343
211.436	38.203
214.811	57.6441
218.186	80.9722
221.561	90.2688
224.936	40.9573
228.31	16.7909
231.685	30.2635
235.06	45.9857
238.435	67.7916
241.81	106.022
245.185	174.496
248.559	243.24
251.934	134.335
255.309	57.0923
258.684	51.9539
262.059	40.2299
265.433	47.1551
268.808	68.5843
272.183	104.223
275.558	168.108
278.933	199.209
282.308	116.795
285.682	43.9102
289.057	11.8217
292.432	0.12941
295.807	3.75272
299.182	1.96783
302.556	5.2234
305.931	17.1681
309.306	30.8737
312.681	49.5264
316.056	75.4125
319.43	93.6012
322.805	84.1898
326.18	61.5848
329.555	51.6151
332.93	55.4146
336.305	62.5346
339.679	60.1444
343.054	49.1345
346.429	36.3611
349.804	34.2137
353.179	37.3838
356.553	41.4728
359.928	39.3715
363.303	35.4171
366.678	35.1135
370.053	33.4031
373.428	27.0065
376.802	21.545
380.177	18.9015
383.552	19.2746
386.927	22.7867
390.302	19.7763
393.676	12.3838
397.051	4.53931
400.426	1.00789
403.801	3.86214
407.176	4.34694
410.55	4.70247
413.925	1.87691
417.3	0.796173
420.675	5.93646
424.05	10.9046
427.425	16.1597
430.799	20.2255
434.174	21.4895
437.549	18.1738
440.924	15.8264
444.299	17.8286
447.673	29.5475
451.048	48.5985
454.423	76.4099
457.798	108.462
461.173	146.015
464.548	181.421
467.922	191.485
471.297	157.357
474.672	102.219
478.047	68.9119
481.422	51.5047
484.796	46.5189
488.171	45.0485
491.546	45.6692
494.921	45.0949
498.296	45.0072
501.671	44.9155
505.045	47.1512
508.42	47.5384
511.795	46.6303
515.17	42.2381
518.545	34.5383
521.919	27.0278
525.294	21.6076
528.669	16.8617
532.044	15.3771
535.419	16.3657
538.794	22.3143
542.168	29.256
545.543	40.4329
548.918	52.4945
552.293	65.1408
555.668	77.1348
559.043	81.6058
562.417	73.9167
565.792	55.4517
569.167	35.8476
572.542	20.8603
575.917	9.39357
579.291	5.21912
582.666	1.08915
586.041	0.990463
589.416	1.34264
592.791	1.87553
596.165	2.03949
599.54	1.68564
602.915	0.024006
606.29	0.396351
609.665	2.0051
613.04	2.25875
616.414	3.50142
619.789	5.23214
623.164	6.65926
626.539	7.70744
629.914	8.86693
633.288	11.7836
636.663	13.8809
640.038	16.7435
643.413	19.9934
646.788	23.4457
650.163	28.5871
653.537	33.5179
656.912	40.6192
660.287	45.4251
663.662	45.8109
667.037	38.2368
670.411	26.188
673.786	15.7459
677.161	9.57595
680.536	4.54666
683.911	3.35001
687.285	0.57198
690.66	0.600662
694.035	1.37707
697.41	1.15888
700.785	1.29398
704.16	0.948536
707.534	1.36251
710.909	1.31428
714.284	0.312492
717.659	0.782784
721.034	1.72582
724.409	2.06323
727.783	2.56216
731.158	3.98757
734.533	5.33895
737.908	6.57467
741.283	5.6489
744.657	4.92589
748.032	4.16074
751.407	4.47247
754.782	5.87048
758.157	10.1386
761.532	14.6356
764.906	22.5024
768.281	33.9447
771.656	49.6033
775.031	73.6306
778.406	100.59
781.78	153.188
785.155	244.879
788.53	431.49
791.905	848.746
795.28	1367.71
798.654	2115.03
802.029	3523.27
805.404	4490.38
808.779	2380.63
812.154	905.749
815.529	450.723
818.903	268.679
822.278	175.529
825.653	117.463
829.028	74.8186
832.403	44.7626
835.778	24.6201
839.152	12.682
842.527	5.96005
845.902	2.88597
849.277	1.992
852.652	3.5417
856.026	5.70194
859.401	7.67854
862.776	8.21552
866.151	7.54997
869.526	7.25184
872.9	12.9272
876.275	24.7214
879.65	32.3891
883.025	49.4986
886.4	82.5116
889.774	29.5516
893.149	3.36878
896.524	2.04445
899.899	3.03976
903.274	2.52143
906.649	1.71971
910.023	0.416664
913.398	0.849072
916.773	2.34047
920.148	4.44563
923.523	6.64424
926.898	9.9926
930.272	13.5424
933.647	21.7852
937.022	22.6659
940.397	27.2013
943.772	30.6536
947.146	32.8972
950.521	31.7884
953.896	30.9709
957.271	30.6638
960.646	32.2362
964.02	34.7347
967.395	35.4877
970.77	32.8526
974.145	24.0575
977.52	17.743
980.895	11.2219
984.269	7.13803
987.644	5.42546
991.019	4.08155
994.394	3.48269
997.769	2.25919
1001.14	2.51807
1004.52	2.18357
1007.89	1.47498
1011.27	1.67024
1014.64	1.5396
1018.02	0.916794
1021.39	0.492481
1024.77	0.533907
1028.14	0.203001
1031.52	0.287113
1034.89	0.457521
1038.27	0.820532
1041.64	0.317663
1045.02	0.546146
1048.39	0.806293
1051.77	0.697659
1055.14	0.97328
1058.52	0.590065
1061.89	0.598452
1065.27	0.659739
1068.64	0.093342
1072.02	0.761913
1075.39	0.159613
1078.76	0.081301
1082.14	0.143694
1085.51	0.308393
1088.89	0.094717
1092.26	0.232492
1095.64	0.173222
1099.01	0.05822
1102.39	0.023584
1105.76	0.264774
1109.14	1.25819
1112.51	2.02477
1115.89	4.70335
1119.26	4.70034
1122.64	0.757246
1126.01	0.554438
1129.39	0.945614
1132.76	0.612465
1136.14	0.718283
1139.51	0.880928
1142.89	1.44704
1146.26	1.66774
1149.63	2.38887
1153.01	3.05956
1156.38	3.34261
1159.76	3.2695
1163.13	2.52527
1166.51	2.15272
1169.88	0.48332
1173.26	0.601183
1176.63	0.724367
1180.01	0.453384
1183.38	0.449846
1186.76	0.287474
1190.13	0.394506
1193.51	0.559786
1196.88	0.041931
1200.26	0.430414
1203.63	0.00798
1207.01	0.257347
1210.38	0.131659
1213.76	0.131054
1217.13	0.537125
1220.51	0.420174
1223.88	0.267727
1227.26	0.726484
1230.63	0.090641
1234.01	0.102493
1237.38	0.196012
1240.76	0.400301
1244.13	0.35034
1247.51	0.408783
1250.88	0.497026
1254.26	0.647596
1257.63	0.498108
1261	0.662155
1264.38	0.199263
1267.75	0.017756
1271.13	0.421879
1274.5	0.39872
1277.88	0.981321
1281.25	0.549152
1284.63	0.258938
1288	0.469749
1291.38	0.302607
1294.75	0.193884
1298.13	1.48166
1301.5	0.176455
