Measurement: Raman, 532 nm, unoriented, Raman Data Processed
Mineral: Vandenbrandeite
Rruff sample: R080114
Ideal chemistry: CuUO_2_(OH)_4_
Locality: Shinkolobwe Mine, Shaba, Democratic Republic of Congo
Source: William W. Pinch
Description: Dark blackish green crystals
Raman shift (cm-1)	intensity
136.226	0
139.601	8.04336
142.976	25.8025
146.351	75.4049
149.725	76.2443
153.1	42.7113
156.475	62.9452
159.85	47.6866
163.225	52.3946
166.6	88.914
169.974	134.733
173.349	191.104
176.724	255.341
180.099	334.356
183.474	328.423
186.848	132.603
190.223	34.5747
193.598	1.18691
196.973	8.3381
200.348	5.92115
203.722	2.97166
207.097	14.6545
210.472	32.2167
213.847	52.6964
217.222	68.2745
220.597	78.9875
223.971	36.945
227.346	15.4239
230.721	31.6327
234.096	53.5987
237.471	79.5583
240.845	121.447
244.22	197.79
247.595	286.186
250.97	205.087
254.345	80.7471
257.719	55.688
261.094	35.1732
264.469	36.7476
267.844	52.6509
271.219	83.4306
274.594	125.631
277.968	151.147
281.343	89.3058
284.718	29.4718
288.093	4.78958
291.468	4.47377
294.842	4.42113
298.217	3.78371
301.592	20.5673
304.967	42.7932
308.342	67.5027
311.717	103.016
315.091	140.715
318.466	164.212
321.841	140.85
325.216	96.0986
328.591	66.7325
331.966	53.2094
335.34	48.9525
338.715	42.1702
342.09	35.4963
345.465	32.25
348.84	37.4742
352.214	44.7496
355.589	53.0137
358.964	55.3424
362.339	58.6347
365.714	62.3601
369.089	58.1328
372.463	48.1015
375.838	38.713
379.213	33.6527
382.588	33.6301
385.963	32.0876
389.337	26.3602
392.712	16.7204
396.087	5.3062
399.462	0.497055
402.837	4.63033
406.212	4.7598
409.586	4.41137
412.961	1.36787
416.336	4.19083
419.711	10.3446
423.086	17.8636
426.46	25.7891
429.835	32.3824
433.21	32.4988
436.585	26.9311
439.96	21.204
443.334	19.7771
446.709	25.553
450.084	42.0709
453.459	64.0417
456.834	91.435
460.209	121.679
463.583	149.692
466.958	158.031
470.333	135.504
473.708	100.87
477.083	75.4232
480.457	62.5524
483.832	57.4287
487.207	56.325
490.582	51.9066
493.957	49.1331
497.332	45.5847
500.706	40.7589
504.081	37.8791
507.456	34.7011
510.831	30.5925
514.206	26.3922
517.58	20.6938
520.955	15.9232
524.33	11.0001
527.705	9.51463
531.08	9.86623
534.455	12.2913
537.829	15.9755
541.204	19.4562
544.579	25.5787
547.954	31.2881
551.329	35.5481
554.703	38.5184
558.078	37.0361
561.453	29.647
564.828	21.0728
568.203	11.6805
571.577	5.52091
574.952	0.444473
578.327	0.710094
581.702	2.03231
585.077	2.13059
588.452	2.28844
591.826	1.93098
595.201	0.443005
598.576	0.040234
601.951	1.2136
605.326	1.80704
608.701	2.67329
612.075	5.00584
615.45	5.44906
618.825	9.77529
622.2	8.85236
625.575	10.8448
628.949	12.4646
632.324	15.0861
635.699	17.8803
639.074	22.0475
642.449	25.5831
645.823	31.7947
649.198	37.1756
652.573	42.8498
655.948	49.5324
659.323	50.4215
662.698	44.6
666.072	34.5862
669.447	24.0415
672.822	15.7861
676.197	9.77552
679.572	5.27461
682.947	3.77189
686.321	1.29658
689.696	1.178
693.071	0.240276
696.446	1.03227
699.821	1.31268
703.195	1.62917
706.57	0.703075
709.945	0.550499
713.32	0.258839
716.695	1.06415
720.069	1.88216
723.444	2.77931
726.819	3.7899
730.194	6.10598
733.569	5.93386
736.943	7.44695
740.318	7.03084
743.693	6.1683
747.068	5.2448
750.443	4.96272
753.818	5.31813
757.192	7.77164
760.567	9.3735
763.942	14.4647
767.317	19.8957
770.692	29.4118
774.067	41.706
777.441	58.3146
780.816	85.3406
784.191	131.036
787.566	225.276
790.941	417.347
794.315	686.838
797.69	1025.03
801.065	1650.2
804.44	2265.26
807.815	1634.23
811.189	669.618
814.564	317.417
817.939	183.634
821.314	118.02
824.689	77.2078
828.064	49.5971
831.438	30.162
834.813	18.0727
838.188	10.124
841.563	5.70132
844.938	3.27404
848.312	2.7483
851.687	2.32309
855.062	2.65715
858.437	1.12968
861.812	4.94388
865.187	0.603336
868.561	0.312786
871.936	2.38373
875.311	5.42011
878.686	8.38056
882.061	9.31106
885.436	6.98825
888.81	2.86261
892.185	0.796612
895.56	1.80899
898.935	2.22296
902.31	1.47187
905.684	0.20676
909.059	0.595589
912.434	1.95943
915.809	3.21676
919.184	4.97155
922.558	6.29812
925.933	8.70725
929.308	11.2498
932.683	14.0807
936.058	17.1915
939.433	19.8372
942.807	21.6081
946.182	22.481
949.557	23.2506
952.932	23.2241
956.307	25.0791
959.682	26.5939
963.056	27.4581
966.431	27.9172
969.806	24.0244
973.181	18.35
976.556	13.0345
979.93	8.33014
983.305	6.47702
986.68	4.17418
990.055	3.47737
993.43	2.31485
996.804	1.56173
1000.18	1.45692
1003.55	1.47112
1006.93	0.835365
1010.3	3.09536
1013.68	1.40228
1017.05	0.8508
1020.43	0.452965
1023.8	0.730793
1027.18	0.110155
1030.55	0.363245
1033.93	0.257187
1037.3	0.687557
1040.68	1.003
1044.05	0.73123
1047.43	0.641777
1050.8	1.13858
1054.18	0.460066
1057.55	0.882738
1060.93	0.301739
1064.3	0.818857
1067.68	0.076145
1071.05	0.090734
1074.42	0.130157
1077.8	0.403706
1081.17	0.206446
1084.55	0.005718
1087.92	0.059179
1091.3	0.506475
1094.67	0.037539
1098.05	0.341032
1101.42	0.073751
1104.8	0.264229
1108.17	0.636471
1111.55	0.407158
1114.92	0.894936
1118.3	0.561466
1121.67	1.10384
1125.05	1.29969
1128.42	1.47695
1131.8	1.24984
1135.17	3.16884
1138.55	2.15644
1141.92	2.71281
1145.3	3.49615
1148.67	4.08521
1152.05	3.77122
1155.42	3.70073
1158.8	3.16672
1162.17	2.46842
1165.55	1.58286
1168.92	1.29483
1172.3	1.25843
1175.67	0.743162
1179.05	0.573595
1182.42	0.293909
1185.79	0.102116
1189.17	0.330217
1192.54	0.916908
1195.92	0.46242
1199.29	0.051941
1202.67	0.339994
1206.04	0.199295
1209.42	0.280779
1212.79	0.06999
1216.17	0.570034
1219.54	0.691067
1222.92	0.069063
1226.29	0.157124
1229.67	0.450529
1233.04	0.41787
1236.42	0.217371
1239.79	0.612537
1243.17	0.27236
1246.54	0.693331
1249.92	0.434023
1253.29	0.631769
1256.66	0.31074
1260.04	0.275904
1263.41	0.261967
1266.79	0.128109
1270.16	0.385332
1273.54	0.326851
1276.91	0.262339
1280.29	0.121841
1283.66	0.612911
1287.04	0.638962
1290.41	0.5951
1293.79	0.242857
1297.16	0.46516
1300.54	0.5574
1303.91	0.000315
