Measurement: Raman, 780 nm, unoriented, Raman Data Processed
Mineral: Vandendriesscheite
Rruff sample: R090064
Ideal chemistry: Pb_1.6_(UO_2_)_10_O_6_(OH)_11_11H_2_O
Locality: Shinkolobwe mine, Katanga, Congo
Source: William W. Pinch
Description: Yellowish-orange blocky crystals associated with dark reddish-orange fourmarierite
Raman shift (cm-1)	intensity
91.8272	0
95.202	186.522
98.5768	291.295
101.952	305.685
105.326	245.352
108.701	164.477
112.076	270.807
115.451	228.048
118.826	123.754
122.201	111.649
125.575	63.2144
128.95	27.0625
132.325	62.2876
135.7	11.1787
139.075	142.457
142.449	174.875
145.824	229.418
149.199	387.552
152.574	545.388
155.949	749.929
159.323	851.044
162.698	937.244
166.073	993.174
169.448	1146.51
172.823	1217.61
176.198	1277.22
179.572	1413.24
182.947	1579.69
186.322	1773.56
189.697	1962.35
193.072	2072.9
196.446	2115.29
199.821	1917.37
203.196	1488.28
206.571	1042.14
209.946	634.798
213.321	320.685
216.695	113.818
220.07	3.21777
223.445	37.7891
226.82	24.8296
230.195	66.3318
233.569	270.445
236.944	391.029
240.319	552.855
243.694	679.63
247.069	832.867
250.444	898.487
253.818	864.795
257.193	846.355
260.568	737.634
263.943	603.784
267.318	448.502
270.692	342.878
274.067	264.334
277.442	172.909
280.817	68.6487
284.192	26.0234
287.567	37.501
290.941	12.1477
294.316	62.8957
297.691	160.426
301.066	341.073
304.441	581.86
307.815	856.22
311.19	1240.35
314.565	1568.92
317.94	1954.53
321.315	2216.58
324.69	2360.75
328.064	2330.38
331.439	2171.52
334.814	1993.33
338.189	1779.59
341.564	1436.98
344.938	1175.96
348.313	928.76
351.688	653.071
355.063	399.262
358.438	278.452
361.812	102.115
365.187	56.1101
368.562	4.17578
371.937	20.0781
375.312	68.9495
378.687	1.87109
382.061	20.7678
385.436	115.766
388.811	192.697
392.186	286.697
395.561	405.733
398.935	515.869
402.31	630.237
405.685	679.755
409.06	718.744
412.435	767.459
415.81	814.644
419.184	869.891
422.559	982.212
425.934	1125.26
429.309	1205.03
432.684	1353.7
436.058	1558.52
439.433	1712.04
442.808	1968.9
446.183	2147.3
449.558	2319.14
452.933	2314.41
456.307	2120.74
459.682	1699.84
463.057	1281.32
466.432	859.682
469.807	528.695
473.181	302.1
476.556	155.905
479.931	43.3843
483.306	16.573
486.681	36.2151
490.055	6.67603
493.43	42.4585
496.805	95.6985
500.18	153.385
503.555	273.709
506.93	355.234
510.304	459.73
513.679	574.925
517.054	699.521
520.429	760.221
523.804	858.697
527.178	963.309
530.553	1058.46
533.928	1102.03
537.303	1180.52
540.678	1263.29
544.053	1281.07
547.427	1307.16
550.802	1335.84
554.177	1349.03
557.552	1249.32
560.927	1194.46
564.302	1107.56
567.676	1017.46
571.051	868.105
574.426	697.819
577.801	563.059
581.176	409.32
584.55	294.265
587.925	198.433
591.3	99.8486
594.675	62.7333
598.05	23.7869
601.424	1.08313
604.799	17.7306
608.174	11.2415
611.549	20.4655
614.924	4.89575
618.298	2.44458
621.673	16.8422
625.048	27.8754
628.423	36.6112
631.798	52.2394
635.173	81.8082
638.547	60.1632
641.922	111.88
645.297	98.2327
648.672	122.686
652.047	117.685
655.422	172.766
658.796	165.393
662.171	163.44
665.546	164.772
668.921	157.792
672.296	157.581
675.67	146.062
679.045	119.768
682.42	89.3927
685.795	90.0198
689.17	61.8357
692.544	73.5717
695.919	48.4045
699.294	47.1656
702.669	24.6346
706.044	2.25909
709.419	14.0919
712.793	6.83868
716.168	8.87018
719.543	42.4026
722.918	34.9465
726.293	62.0904
729.668	9.22498
733.042	3.61621
736.417	39.6522
739.792	56.4288
743.167	105.894
746.542	191.162
749.916	278.385
753.291	388.31
756.666	553.636
760.041	737.206
763.416	968.785
766.79	1242.06
770.165	1471.23
773.54	1751.79
776.915	2003.58
780.29	2219.31
783.665	2505.94
787.039	2821.9
790.414	3117.86
793.789	3483.52
797.164	3985.03
800.539	4659.71
803.913	5576.08
807.288	6722.67
810.663	7965.83
814.038	9031.88
817.413	9821.24
820.788	10097.8
824.162	9804.36
827.537	8815.17
830.912	7267.16
834.287	5234.36
837.662	3051.03
841.036	1584.76
844.411	856.738
847.786	492.443
851.161	348.372
854.536	212.077
857.91	130.26
861.285	78.5115
864.66	55.9514
868.035	11.243
871.41	22.0504
874.784	31.4541
878.159	46.6487
881.534	107.811
884.909	265.583
888.284	89.9074
891.659	40.3434
895.033	49.1508
898.408	22.9957
901.783	8.93231
905.158	9.83539
908.533	9.75903
911.908	16.5846
915.282	50.9194
918.657	73.7877
922.032	63.9824
925.407	107.605
928.782	83.9279
932.156	87.6365
935.531	97.1107
938.906	108.835
942.281	94.4747
945.656	112.619
949.03	113.481
952.405	92.9061
955.78	66.4131
959.155	66.0156
962.53	64.7867
965.905	50.7788
969.279	49.9662
972.654	55.3889
976.029	76.8033
979.404	52.3208
982.779	24.1864
986.154	52.5646
989.528	32.2994
992.903	35.1649
996.278	38.8757
999.653	37.6899
1003.03	27.7271
1006.4	42.9363
1009.78	14.6724
1013.15	31.55
1016.53	41.7698
1019.9	36.5637
1023.28	26.4215
1026.65	12.9946
1030.03	45.2974
1033.4	8.08343
1036.78	45.7621
1040.15	25.5575
1043.53	61.2751
1046.9	57.6746
1050.28	53.0862
1053.65	52.3716
1057.03	32.8619
1060.4	25.5511
1063.77	4.7869
1067.15	0.905334
1070.52	25.925
1073.9	1.16821
1077.27	17.0223
1080.65	1.63708
1084.02	6.20288
1087.4	0.565674
1090.77	2.98087
1094.15	18.5396
1097.52	21.7383
1100.9	1.63821
1104.27	2.27011
1107.65	4.89847
1111.02	21.9647
1114.4	31.6321
1117.77	71.1986
1121.15	42.5508
1124.52	9.81976
1127.9	26.4348
1131.27	27.1058
1134.64	46.8995
1138.02	42.4627
1141.39	1.45258
1144.77	8.30948
1148.14	23.5241
1151.52	19.827
1154.89	10.0794
1158.27	13.9389
1161.64	19.7933
1165.02	32.1093
1168.39	17.5116
1171.77	12.6549
1175.14	32.2372
1178.52	19.8365
1181.89	17.1408
1185.27	33.2076
1188.64	40.8211
1192.02	23.3275
1195.39	16.0211
1198.77	42.8049
1202.14	32.3589
1205.52	30.7109
1208.89	31.0117
1212.27	35.9773
1215.64	28.2518
1219.02	40.9475
1222.39	47.0759
1225.77	45.6704
1229.14	5.81457
1232.52	4.91269
1235.89	56.5517
1239.27	33.4713
1242.64	26.6659
1246.01	9.04181
1249.39	16.3416
1252.76	40.6124
1256.14	13.8671
1259.51	21.0008
1262.89	21.138
1266.26	8.22272
1269.64	3.02377
1273.01	30.84
1276.39	25.2387
1279.76	0.394958
1283.14	0.148499
