Measurement: Raman, 780 nm, unoriented, Raman Data Processed
Mineral: Vandenbrandeite
Rruff sample: R080114
Ideal chemistry: CuUO_2_(OH)_4_
Locality: Shinkolobwe Mine, Shaba, Democratic Republic of Congo
Source: William W. Pinch
Description: Dark blackish green crystals
Raman shift (cm-1)	intensity
136.396	0
139.289	0.560665
142.181	0.782032
145.074	1.10536
147.967	1.88216
150.859	1.93827
153.752	1.35634
156.645	1.07371
159.538	0.734493
162.43	0.571161
165.323	1.49038
168.216	2.91626
171.108	3.16503
174.001	3.92636
176.894	4.6578
179.786	5.23072
182.679	5.57953
185.572	4.27746
188.465	1.35543
191.357	0.079339
194.25	0.639849
197.143	0.173785
200.035	0.599996
202.928	0.961062
205.821	1.50876
208.714	2.96827
211.606	4.05135
214.499	4.93642
217.392	4.80869
220.284	5.31255
223.177	3.94749
226.07	1.5274
228.962	0.951894
231.855	0.843616
234.748	1.06186
237.641	1.67333
240.533	2.49503
243.426	3.50867
246.319	4.16806
249.211	4.91373
252.104	2.33525
254.997	1.36415
257.889	0.7051
260.782	0.71866
263.675	0.178331
266.567	0.651455
269.46	1.13727
272.353	1.8605
275.246	1.91454
278.138	2.32784
281.031	2.03145
283.924	1.19356
286.816	0.103753
289.709	0.243384
292.602	0.453091
295.495	0.674397
298.387	0.70485
301.28	1.82307
304.173	2.6172
307.065	3.69311
309.958	4.21072
312.851	12.325
315.743	13.8906
318.636	14.355
321.529	12.0929
324.421	10.5484
327.314	9.70136
330.207	8.57203
333.1	8.13028
335.992	7.37773
338.885	7.45237
341.778	7.82926
344.67	7.91944
347.563	8.75594
350.456	9.55964
353.349	8.26686
356.241	5.39486
359.134	4.28199
362.027	2.44382
364.919	1.63515
367.812	1.18432
370.705	0.547286
373.597	1.00579
376.49	0.768116
379.383	0.562537
382.276	0.841099
385.168	0.554247
388.061	0.408196
390.954	0.352024
393.846	0.405114
396.739	0.469078
399.632	0.291134
402.524	0.074664
405.417	0.219954
408.31	0.067785
411.202	0.30046
414.095	0.04519
416.988	0.009995
419.881	0.46993
422.773	0.155545
425.666	0.345698
428.559	0.19063
431.451	0.482595
434.344	0.734159
437.237	1.29729
440.13	0.911878
443.022	1.50575
445.915	2.11303
448.808	3.08953
451.7	3.19995
454.593	5.44187
457.486	6.95795
460.378	8.98239
463.271	9.87899
466.164	10.4303
469.057	9.92108
471.949	8.18804
474.842	5.36057
477.735	4.67313
480.627	3.28965
483.52	2.76011
486.413	2.31253
489.305	2.27468
492.198	1.93207
495.091	1.47499
497.983	1.55099
500.876	1.38294
503.769	1.27393
506.662	1.2232
509.554	1.19713
512.447	0.716395
515.34	1.20285
518.232	0.4212
521.125	0.64851
524.018	0.671772
526.91	0.298415
529.803	0.244199
532.696	0.773592
535.589	0.361027
538.481	0.740665
541.374	0.463296
544.267	0.862291
547.159	0.623948
550.052	1.11216
552.945	0.983161
555.837	1.36827
558.73	1.0474
561.623	1.07286
564.516	0.82463
567.408	0.54299
570.301	0.784697
573.194	0.037797
576.086	0.109588
578.979	0.456378
581.872	0.068655
584.764	0.161415
587.657	0.418797
590.55	0.217014
593.443	0.48036
596.335	0.173915
599.228	0.173189
602.121	0.112296
605.013	0.849714
607.906	0.340558
610.799	0.328742
613.692	0.269942
616.584	1.02811
619.477	0.327775
622.37	0.179758
625.262	0.123849
628.155	0.921542
631.048	0.739767
633.94	0.506501
636.833	0.494649
639.726	0.386192
642.619	1.06389
645.511	0.99419
648.404	0.645098
651.297	1.35879
654.189	1.30195
657.082	1.07681
659.975	1.11269
662.867	1.31937
665.76	1.58895
668.653	1.06973
671.545	0.655447
674.438	0.300027
677.331	0.513777
680.224	0.684091
683.116	0.34007
686.009	0.453991
688.902	0.367462
691.794	0.005942
694.687	0.913818
697.58	0.253167
700.472	0.187366
703.365	0.470748
706.258	0.211437
709.151	0.105054
712.043	0.167953
714.936	0.319118
717.829	0.107008
720.721	0.078255
723.614	0.026484
726.507	0.438605
729.399	0.024185
732.292	0.253465
735.185	0.315256
738.078	0.355557
740.97	0.016594
743.863	0.489458
746.756	0.126326
749.648	0.241631
752.541	0.078326
755.434	0.066229
758.327	0.399002
761.219	0.124037
764.112	0.409501
767.005	0.454328
769.897	0.627398
772.79	0.96265
775.683	1.24095
778.575	1.39151
781.468	2.40516
784.361	3.35757
787.254	4.72691
790.146	9.61632
793.039	15.1477
795.932	21.9451
798.824	31.4909
801.717	43.9079
804.61	54.9042
807.502	45.6573
810.395	22.0368
813.288	10.8925
816.181	6.29974
819.073	4.43566
821.966	2.9285
824.859	2.52471
827.751	1.69171
830.644	1.27369
833.537	1.21817
836.429	0.560544
839.322	0.689056
842.215	0.44632
845.107	0.246889
848	0.033856
850.893	0.215497
853.786	0.116099
856.678	0.511292
859.571	0.559735
862.464	0.407522
865.356	0.176105
868.249	0.386415
871.142	0.574131
874.034	0.898905
876.927	0.565124
879.82	0.27329
882.713	0.347711
885.605	0.184766
888.498	0.136238
891.391	0.446864
894.283	0.016849
897.176	0.107699
900.069	0.042653
902.962	0.030901
905.854	0.121273
908.747	0.071119
911.64	0.087327
914.532	0.101297
917.425	0.185223
920.318	0.135087
923.21	0.440035
926.103	0.119457
928.996	0.345745
931.888	0.800007
934.781	0.543927
937.674	0.38783
940.567	0.12006
943.459	1.32129
946.352	0.875958
949.245	0.76774
952.137	1.0287
955.03	1.24387
957.923	1.12642
960.815	1.04689
963.708	1.19742
966.601	1.47028
969.494	1.34639
972.386	1.09706
975.279	0.739724
978.172	0.529925
981.064	0.576227
983.957	0.119738
986.85	0.831472
989.742	0.052619
992.635	0.306316
995.528	0.158926
998.42	0.208913
1001.31	0.391307
1004.21	0.795022
1007.1	0.272765
1009.99	0.297837
1012.88	0.442106
1015.78	0.481489
1018.67	0.258515
1021.56	0.345139
1024.45	0.482043
1027.35	0.68667
1030.24	0.173481
1033.13	0.240038
1036.03	0.244932
1038.92	0.108593
1041.81	0.546849
1044.7	0.579948
1047.6	0.107038
1050.49	0.296799
1053.38	0.382535
1056.28	0.151736
1059.17	0.298594
1062.06	0.334414
1064.95	0.061376
1067.85	0.013983
1070.74	0.524445
1073.63	0.037074
1076.52	0.167182
1079.42	0.240193
1082.31	0.117182
1085.2	0.523184
1088.09	0.885189
1090.99	0.299997
1093.88	0.709246
1096.77	0.313696
1099.66	0.483288
1102.56	0.493142
1105.45	0.583762
1108.34	0.731696
1111.24	0.180012
1114.13	0.335674
1117.02	0.521708
1119.91	0.452459
1122.81	0.402333
1125.7	0.345134
1128.59	0.243999
1131.48	0.095904
1134.38	0.446561
1137.27	0.663099
1140.16	0.427161
1143.06	0.330953
1145.95	0.105336
1148.84	0.345974
1151.73	0.424083
1154.63	0.494794
1157.52	0.401871
1160.41	0.480372
1163.3	0.614803
1166.2	0.464108
1169.09	0.694483
1171.98	0.249325
1174.88	0.377168
1177.77	0.783777
1180.66	0.607086
1183.55	0.445975
1186.45	0.174265
1189.34	0.281127
1192.23	0.312495
1195.12	0.124719
1198.02	0.303029
1200.91	0.42987
1203.8	0.332812
1206.69	0.040677
1209.59	0.157949
1212.48	0.350655
1215.37	0.199872
1218.27	0.046383
1221.16	0.226882
1224.05	0.4561
1226.94	0.061667
1229.84	0.330436
1232.73	0.242163
1235.62	0.025362
1238.52	0.572961
1241.41	0.082612
1244.3	0.255461
1247.19	0.028084
1250.09	0.239483
1252.98	0.291084
1255.87	0.368439
1258.76	0.133244
1261.66	0.327108
1264.55	0.355065
1267.44	0.319705
1270.33	0.725681
1273.23	0.636171
1276.12	0.483968
1279.01	0.625272
1281.9	0.449524
1284.8	0.07937
