Measurement: Raman, 532 nm, unoriented, Raman Data Processed
Mineral: Vantasselite
Rruff sample: R060371
Ideal chemistry: Al_4_(PO_4_)_3_(OH)_3_9H_2_O
Locality: Bihain, Stavelot Massif, Belgium
Source: Michael Scott
Description: White pearly luster lamellar crystals in flattened rosettes
Raman shift (cm-1)	intensity
160.091	0
162.984	82.104
165.876	88.273
168.769	17.013
171.662	205.812
174.555	116.774
177.447	32.661
180.34	38.892
183.233	9.952
186.125	67.454
189.018	68.235
191.911	203.064
194.803	346.516
197.696	431.947
200.589	865.809
203.482	1350.91
206.374	1194.99
209.267	1052.19
212.16	841.677
215.052	862.813
217.945	1187.6
220.838	1654.15
223.73	2105.42
226.623	2409.14
229.516	2389.12
232.409	2279.86
235.301	2014.42
238.194	1798.55
241.087	1510.89
243.98	1238.03
246.872	1159.57
249.765	920.909
252.658	1048.86
255.55	541.564
258.443	374.975
261.336	255.375
264.228	101.674
267.121	24.833
270.014	191.946
272.906	6.609
275.799	107.347
278.692	322.869
281.585	484.854
284.477	800.119
287.37	1017.99
290.263	964.38
293.155	875.498
296.048	944.891
298.941	1385.28
301.833	2196.23
304.726	3145.43
307.619	4376.37
310.512	5563.5
313.404	6326.24
316.297	6573.36
319.19	6162.87
322.082	5237.89
324.975	4405.6
327.868	4180.97
330.76	3932.73
333.653	3617.89
336.546	2763.45
339.439	1844.09
342.331	1303.22
345.224	819.9
348.117	776.554
351.009	794.818
353.902	931.242
356.795	926.953
359.688	972.567
362.58	1138.85
365.473	1330.9
368.366	1528.66
371.258	1856.12
374.151	1397.98
377.044	685.696
379.936	190.027
382.829	106.692
385.722	133.04
388.615	77.595
391.507	14.081
394.4	82.175
397.293	36.643
400.185	88.514
403.078	223.538
405.971	453.248
408.863	993.9
411.756	1345.79
414.649	1881.99
417.542	2706.89
420.434	3077.59
423.327	3448.89
426.22	3640.44
429.112	3648.75
432.005	3768.93
434.898	3660.52
437.79	3551.7
440.683	3284.74
443.576	3083.88
446.469	2953.5
449.361	2528.2
452.254	2250.52
455.147	1945.02
458.039	1510.22
460.932	923.151
463.825	607.547
466.717	284.892
469.61	11.516
472.503	33.724
475.396	106.34
478.288	116.82
481.181	65.995
484.074	271.558
486.966	458.291
489.859	741.594
492.752	841.105
495.645	754.057
498.537	621.445
501.43	612.684
504.323	661.49
507.215	901.637
510.108	1029.47
513.001	1174.77
515.893	1219.15
518.786	1248.38
521.679	858.555
524.571	593.871
527.464	150.885
530.357	66.275
533.25	172.799
536.142	217.66
539.035	329.646
541.928	477.818
544.82	717.035
547.713	899.15
550.606	1115.87
553.499	1064.84
556.391	1061.42
559.284	1085.5
562.177	1052.03
565.069	890.631
567.962	836.502
570.855	836
573.747	815.518
576.64	970.996
579.533	1380.26
582.426	1482.9
585.318	1788.3
588.211	2007.68
591.104	2052.93
593.996	1824.46
596.889	1437.94
599.782	1008.92
602.674	729.928
605.567	411.16
608.46	366.635
611.353	135.521
614.245	42.219
617.138	10.301
620.031	113.047
622.923	3.588
625.816	253.158
628.709	267.719
631.602	172.77
634.494	282.873
637.387	373.619
640.28	436.223
643.172	501.543
646.065	509.801
648.958	658.57
651.851	491.164
654.743	447.746
657.636	395.441
660.529	303.545
663.421	243.602
666.314	77.939
669.207	41.127
672.099	23.562
674.992	9.33
677.885	116.338
680.778	70.814
683.67	44.035
686.563	21.494
689.456	36.23
692.348	131.607
695.241	188.967
698.134	144.361
701.026	186.438
703.919	70.963
706.812	184.359
709.705	160.992
712.597	104.068
715.49	176.199
718.383	169.182
721.275	91.121
724.168	135.178
727.061	397.617
729.953	238.115
732.846	143.883
735.739	155.322
738.631	176.787
741.524	95.977
744.417	131.91
747.31	239.633
750.202	162.594
753.095	57.197
755.988	54.016
758.88	35.557
761.773	16.275
764.666	66.961
767.558	102.098
770.451	52.467
773.344	117.391
776.237	102.193
779.129	81.084
782.022	102.047
784.915	8.422
787.807	2.594
790.7	108.578
793.593	130.748
796.485	141.078
799.378	273.363
802.271	205.133
805.164	280.689
808.056	277.539
810.949	380.316
813.842	392.717
816.734	400.762
819.627	453.498
822.52	443.336
825.412	443.848
828.305	459.354
831.198	489.73
834.091	436.502
836.983	431.967
839.876	388.572
842.769	374.123
845.661	312.217
848.554	317.314
851.447	281.295
854.34	251.379
857.232	218.119
860.125	195.707
863.018	203.262
865.91	164.512
868.803	74.467
871.696	1.402
874.589	86.756
877.481	66.182
880.374	11.891
883.267	30.684
886.159	56.18
889.052	2.432
891.945	214.047
894.837	254.699
897.73	204.311
900.623	365.123
903.516	454.512
906.408	497.398
909.301	722.348
912.194	852.385
915.086	1059.65
917.979	1341.72
920.872	1617.06
923.764	2114.43
926.657	2317.8
929.55	2333.25
932.443	2088.53
935.335	1626.89
938.228	1429.53
941.121	1164.68
944.013	830.225
946.906	631.889
949.799	423.201
952.692	209.285
955.584	5.617
958.477	152.287
961.37	319.051
964.262	193.092
967.155	10.893
970.048	278.912
972.94	286.035
975.833	412.016
978.726	348.844
981.619	506.344
984.511	442.975
987.404	528.945
990.297	634.021
993.189	1002.45
996.082	1415.6
998.975	2326.85
1001.87	3523.66
1004.76	4505.38
1007.65	5826.47
1010.54	6451.16
1013.44	6342.72
1016.33	5701.88
1019.22	4567.63
1022.12	4266.51
1025.01	4142.16
1027.9	4033.88
1030.79	3945.8
1033.69	3739.29
1036.58	4093.51
1039.47	4487.93
1042.37	5114.89
1045.26	5588.36
1048.15	5954.73
1051.04	5540.11
1053.94	5228.67
1056.83	4636.32
1059.72	3769.85
1062.61	3231.86
1065.51	2887.03
1068.4	2538.18
1071.29	2318.64
1074.18	2454.89
1077.08	2707.11
1079.97	2830.73
1082.86	3067.14
1085.76	3314.15
1088.65	3401.97
1091.54	2792.18
1094.43	2300.98
1097.33	1635.29
1100.22	1138.04
1103.11	635.809
1106.01	344.818
1108.9	126.896
1111.79	63.203
1114.68	48.068
1117.58	27.021
1120.47	103.047
1123.36	41.016
1126.25	35.945
1129.15	110.379
1132.04	280.865
1134.93	430.383
1137.82	637.229
1140.72	995.418
1143.61	1635.41
1146.5	1375.97
1149.39	1058.44
1152.29	918.77
1155.18	622.051
1158.07	275.059
1160.97	73.492
1163.86	18.811
1166.75	160.48
1169.64	58.824
1172.54	127.195
1175.43	192.695
1178.32	199.129
1181.21	291.662
1184.11	278.414
1187	318.242
1189.89	464.689
1192.79	620.75
1195.68	711.664
1198.57	736.078
1201.46	800.186
1204.36	589.6
1207.25	342.395
1210.14	450.373
1213.04	321.145
1215.93	439.188
1218.82	293.188
1221.71	383.086
1224.61	147.914
1227.5	185.633
1230.39	214.393
1233.28	82.424
1236.18	141.633
