Measurement: Raman, 532 nm, unoriented, Raman Data Processed
Mineral: Vanuralite
Rruff sample: R050544
Ideal chemistry: Al(UO_2_)_2_(VO_4_)_2_(OH)11H_2_O
Locality: Mounana mine, Franceville, Haut-Ogoou√©, Gabon
Source: University of Arizona Mineral Museum
Description: Yellowish-green branching aggregates
Raman shift (cm-1)	intensity
134.255	0
137.63	0.02
141.005	18.464
144.38	25.247
147.754	61.587
151.129	54.333
154.504	63.112
157.879	97.976
161.254	85.55
164.628	107.849
168.003	115.131
171.378	137.187
174.753	136.146
178.128	148.142
181.503	135.994
184.877	134.902
188.252	107.234
191.627	59.466
195.002	53.177
198.376	67.361
201.751	27.135
205.126	11.331
208.501	6.087
211.876	24.795
215.251	51.416
218.625	72.272
222	120.324
225.375	208.295
228.75	236.501
232.125	304.002
235.499	408.86
238.874	459.599
242.249	422.536
245.624	367.824
248.999	282.578
252.374	187.992
255.748	135.12
259.123	93.582
262.498	57.728
265.873	27.096
269.248	3.017
272.622	4.996
275.997	27.573
279.372	11.501
282.747	9.731
286.122	0.442
289.497	36.519
292.871	40.123
296.246	106.344
299.621	167.636
302.996	257.241
306.371	346.754
309.746	394.117
313.12	398.532
316.495	377.612
319.87	354.21
323.245	349.183
326.62	340.441
329.994	360.116
333.369	398.904
336.744	429.91
340.119	472.757
343.494	525.703
346.868	551.377
350.243	612.056
353.618	675.858
356.993	822.018
360.368	1045.62
363.743	1192.13
367.117	1255.45
370.492	1187.78
373.867	971.074
377.242	697.496
380.617	496.951
383.991	335.681
387.366	254.394
390.741	225.374
394.116	221.496
397.491	234.247
400.866	254.474
404.24	274.342
407.615	270.398
410.99	273.067
414.365	212.116
417.74	137.941
421.115	90.325
424.489	24.246
427.864	6.725
431.239	21.357
434.614	23.965
437.989	35.851
441.363	8.021
444.738	6.081
448.113	3.334
451.488	32.731
454.863	70.909
458.237	130.739
461.612	177.028
464.987	248.172
468.362	303.082
471.737	371.559
475.112	408.008
478.486	398.832
481.861	344.223
485.236	258.619
488.611	172.978
491.986	132.477
495.361	87.844
498.735	41.771
502.11	23.487
505.485	31.719
508.86	27.057
512.235	56.812
515.609	105.711
518.984	147.251
522.359	240.666
525.734	297.259
529.109	388.447
532.484	383.19
535.858	423.878
539.233	349.768
542.608	286.565
545.983	201.495
549.357	159.68
552.732	140.447
556.107	189.723
559.482	251.327
562.857	303.305
566.232	356.008
569.606	412.04
572.981	423.045
576.356	402.797
579.731	352.277
583.106	254.526
586.481	175.246
589.855	133.694
593.23	73.239
596.605	63.496
599.98	19.54
603.355	3.835
606.729	6.733
610.104	9.876
613.479	20.458
616.854	6.108
620.229	12.275
623.604	61.021
626.978	70.344
630.353	113.312
633.728	186.227
637.103	242.971
640.478	311.21
643.852	365.452
647.227	357.523
650.602	294.579
653.977	175.427
657.352	116.768
660.727	74.924
664.101	8.481
667.476	18.57
670.851	0.035
674.226	34.414
677.601	40.24
680.975	11.083
684.35	5.928
687.725	35.128
691.1	79.428
694.475	111.338
697.849	172.537
701.224	268.948
704.599	360.942
707.974	484.187
711.349	694.67
714.724	918.616
718.098	1251.33
721.473	1625.76
724.848	2066.96
728.223	2574.39
731.598	2978.49
734.972	3362.9
738.347	3690.75
741.722	3812.43
745.097	3717.91
748.472	3458.73
751.847	3157.48
755.221	2791.24
758.596	2338.24
761.971	1998.51
765.346	1650.85
768.721	1280.87
772.096	1007.76
775.47	715.49
778.845	563.899
782.22	418.263
785.595	275.589
788.969	179.739
792.344	106.879
795.719	75.553
799.094	16.845
802.469	0.207
805.844	0.217
809.218	3.312
812.593	78.774
815.968	161.535
819.343	266.989
822.718	460.691
826.093	572.155
829.467	638.831
832.842	657.795
836.217	515.512
839.592	356.19
842.967	235.286
846.341	154.976
849.716	67.424
853.091	49.241
856.466	29.9
859.841	2.715
863.216	16.286
866.59	8.233
869.965	14.307
873.34	3.281
876.715	2.764
880.09	29.495
883.464	27.676
886.839	6.967
890.214	21.095
893.589	18.793
896.964	31.921
900.339	34.486
903.713	34.156
907.088	57.069
910.463	73.158
913.838	63.434
917.213	96.038
920.588	87.171
923.962	100.306
927.337	108.821
930.712	151.71
934.087	131.625
937.461	137.37
940.836	183.81
944.211	205.506
947.586	193.785
950.961	220.515
954.336	223.383
957.71	198.508
961.085	204.019
964.46	204.274
967.835	229.134
971.21	236.055
974.584	268.996
977.959	255.926
981.334	241.801
984.709	238.45
988.084	204.474
991.459	173.786
994.833	105.467
998.208	75.393
1001.58	38.472
1004.96	32.231
1008.33	17.748
1011.71	19.791
1015.08	15.235
1018.46	30.027
1021.83	6.15
1025.21	8.987
1028.58	4.271
1031.96	1.702
1035.33	3.934
1038.71	2.175
1042.08	4.663
1045.46	3.348
1048.83	23.021
1052.2	12.401
1055.58	20.552
1058.95	7.178
1062.33	9.01
1065.7	14.392
1069.08	19.355
1072.45	11.993
1075.83	25.736
1079.2	11.574
1082.58	15.445
1085.95	13.446
1089.33	23.762
1092.7	19.952
1096.08	11.761
1099.45	29.788
1102.83	17.055
1106.2	17.852
1109.58	9.177
1112.95	24.126
1116.33	24.106
1119.7	25.839
1123.08	17.518
1126.45	36.462
1129.83	3.353
1133.2	8.629
1136.58	20.784
1139.95	0.331
1143.33	10.606
1146.7	11.451
1150.08	34.215
1153.45	15.164
1156.83	17.789
1160.2	15.61
1163.57	4.01
1166.95	9.232
1170.32	15.651
1173.7	12.499
1177.07	21.664
1180.45	16.807
1183.82	3.563
1187.2	16.001
1190.57	17.919
1193.95	5.845
1197.32	18.284
1200.7	8.777
1204.07	22.908
1207.45	28.066
1210.82	22.15
1214.2	21.924
1217.57	21.516
1220.95	30.599
1224.32	33.123
1227.7	31.906
1231.07	16.18
1234.44	3.599
1237.82	5.412
1241.19	12.3
1244.57	5.866
1247.94	20.781
1251.32	21.429
1254.69	12.261
1258.07	13.303
1261.44	21.308
1264.82	10.687
1268.19	18.214
1271.57	28.829
1274.94	2.559
1278.32	0.68
1281.69	20.005
1285.07	15.294
1288.44	7.866
1291.82	19.092
1295.19	10.213
1298.57	5.585
