Measurement: Raman, 532 nm, unoriented, Raman Data Processed
Mineral: Varennesite
Rruff sample: R110194
Ideal chemistry: Na_8_(Mn,Fe^3+^,Ti)_2_Si_10_O_25_(OH,Cl)_2_12H_2_O
Locality: Demix-Varennes quarry, Saint-Amable sill, Varennes & St-Amable, Lajemmerais RCM, Monteregie, Quebec, Canada
Source: Donald Doell
Description: Pale to dirty yellow platy
Raman shift (cm-1)	intensity
194.463	0
197.356	1.44293
200.249	3.30069
203.141	1.88003
206.034	0.155914
208.927	3.69351
211.819	6.37472
214.712	7.84573
217.605	4.3649
220.497	3.32632
223.39	4.10773
226.283	1.41391
229.175	8.62567
232.068	4.42246
234.961	1.12119
237.854	2.54782
240.746	3.30524
243.639	2.99002
246.532	3.24081
249.424	1.48978
252.317	1.06552
255.21	0.952362
258.103	1.61502
260.995	0.528534
263.888	2.21878
266.781	2.09036
269.673	1.55359
272.566	0.490509
275.459	2.92893
278.351	1.10025
281.244	1.3342
284.137	2.17822
287.029	2.46744
289.922	2.45044
292.815	3.09015
295.708	1.18048
298.6	2.14618
301.493	2.19177
304.386	3.19614
307.278	1.87091
310.171	1.88943
313.064	3.31348
315.957	2.22537
318.849	0.881744
321.742	0.806427
324.635	4.10486
327.527	3.40521
330.42	2.07904
333.313	2.64462
336.205	4.11679
339.098	3.03595
341.991	3.93445
344.884	5.00751
347.776	3.88501
350.669	4.81165
353.562	3.09729
356.454	1.40924
359.347	0.650421
362.24	0.059387
365.132	2.44308
368.025	1.22461
370.918	2.30008
373.81	2.42157
376.703	0.763672
379.596	1.59598
382.489	0.670837
385.381	0.301086
388.274	2.40884
391.167	0.75473
394.059	1.94546
396.952	0.783386
399.845	0.165955
402.738	1.10751
405.63	0.122711
408.523	0.879852
411.416	2.41382
414.308	0.625305
417.201	3.00864
420.094	0.987823
422.986	2.13104
425.879	2.90723
428.772	9.1499
431.664	9.52332
434.557	11.7579
437.45	15.5981
440.343	23.626
443.235	33.2826
446.128	40.6216
449.021	51.8079
451.913	59.0548
454.806	59.5138
457.699	58.4148
460.591	54.2427
463.484	44.1287
466.377	35.1743
469.27	27.7323
472.162	25.8051
475.055	22.7402
477.948	21.5328
480.84	21.4282
483.733	18.6451
486.626	15.487
489.519	14.4517
492.411	11.8123
495.304	12.3819
498.197	8.41034
501.089	7.19476
503.982	4.07904
506.875	3.85733
509.767	1.04431
512.66	0.2146
515.553	0.835846
518.446	2.55917
521.338	1.6886
524.231	0.510376
527.124	2.16733
530.016	1.56488
532.909	5.33719
535.802	8.4231
538.694	12.2421
541.587	17.2628
544.48	19.8605
547.372	26.0183
550.265	31.3849
553.158	34.9761
556.051	37.5053
558.943	35.7498
561.836	34.5639
564.729	30.3781
567.621	33.3711
570.514	28.9795
573.407	24.5222
576.299	23.5554
579.192	20.0037
582.085	19.124
584.978	20.2102
587.87	19.3459
590.763	19.6723
593.656	19.4701
596.548	18.3586
599.441	21.7864
602.334	23.9238
605.226	25.9791
608.119	29.7343
611.012	29.0727
613.905	34.7658
616.797	40.7974
619.69	45.737
622.583	42.3356
625.475	36.2819
628.368	30.6641
631.261	27.7976
634.154	26.832
637.046	21.1454
639.939	18.2603
642.832	18.414
645.724	19.0212
648.617	17.1248
651.51	13.5095
654.402	11.7918
657.295	5.86105
660.188	5.26532
663.081	3.13858
665.973	3.62164
668.866	2.44354
671.759	2.46915
674.651	0.045593
677.544	0.428741
680.437	1.492
683.329	0.50946
686.222	0.817627
689.115	0.368927
692.008	0.164856
694.9	0.712769
697.793	0.630737
700.686	0.642273
703.578	0.45639
706.471	0.901764
709.364	0.266846
712.256	0.530548
715.149	0.748901
718.042	0.583008
720.934	1.52389
723.827	1.55667
726.72	4.16739
729.613	3.0152
732.505	1.06299
735.398	3.48895
738.291	1.60635
741.183	0.451721
744.076	1.53674
746.969	3.72128
749.861	4.48276
752.754	1.56912
755.647	2.04074
758.54	2.12137
761.432	3.36334
764.325	4.94171
767.218	3.28229
770.11	3.647
773.003	4.14999
775.896	3.86227
778.788	4.88364
781.681	3.14978
784.574	4.67972
787.467	2.14841
790.359	3.51984
793.252	5.20682
796.145	5.15219
799.037	4.55652
801.93	3.91849
804.823	1.29102
807.716	3.68683
810.608	3.24219
813.501	3.048
816.394	2.28088
819.286	3.12381
822.179	3.2413
825.072	2.55133
827.964	1.84631
830.857	0.100861
833.75	1.05331
836.643	1.74432
839.535	1.83267
842.428	3.55145
845.321	1.67935
848.213	1.05417
851.106	4.66836
853.999	1.87851
856.891	2.46094
859.784	3.19434
862.677	1.55347
865.569	1.32892
868.462	0.223663
871.355	0.888184
874.248	0.623596
877.14	1.19003
880.033	1.47327
882.926	0.875702
885.818	0.474701
888.711	0.223358
891.604	0.498993
894.496	1.14603
897.389	1.45938
900.282	1.60141
903.175	1.18286
906.067	1.57834
908.96	0.291321
911.853	0.959656
914.745	0.490021
917.638	1.55655
920.531	1.92886
923.423	1.34378
926.316	2.12933
929.209	2.38525
932.102	1.28317
934.994	2.93088
937.887	4.44421
940.78	3.39108
943.672	0.716339
946.565	2.58084
949.458	3.3399
952.351	3.24146
955.243	4.29907
958.136	5.33154
961.029	11.8919
963.921	16.8107
966.814	19.3804
969.707	31.283
972.599	45.4971
975.492	61.425
978.385	84.5377
981.278	114.526
984.17	142.126
987.063	161.119
989.956	152.062
992.848	116.337
995.741	76.3286
998.634	45.3371
1001.53	30.105
1004.42	18.0187
1007.31	15.8745
1010.21	11.8222
1013.1	10.5762
1015.99	5.93835
1018.88	3.75314
1021.77	4.16116
1024.67	2.24832
1027.56	2.34433
1030.45	0.248322
1033.35	1.1553
1036.24	0.707581
1039.13	1.43362
1042.02	0.826904
1044.92	0.337189
1047.81	1.11966
1050.7	0.659088
1053.6	0.377655
1056.49	1.41263
1059.38	0.07074
1062.27	0.761414
1065.17	2.03445
1068.06	1.06683
1070.95	2.51257
1073.84	0.889252
1076.74	3.54959
1079.63	3.68137
1082.52	3.44861
1085.41	5.99225
1088.31	4.2261
1091.2	5.28815
1094.09	3.40198
1096.99	5.70508
1099.88	4.30469
1102.77	5.11032
1105.66	3.20969
1108.56	2.75617
1111.45	2.01846
1114.34	1.42703
1117.23	2.08218
1120.13	4.80002
1123.02	3.94632
1125.91	4.64111
1128.81	5.08142
1131.7	4.77835
1134.59	7.41925
1137.48	9.09155
1140.38	8.0585
1143.27	9.49793
1146.16	8.25955
1149.05	7.78683
1151.95	6.22159
1154.84	3.11951
1157.73	3.42071
1160.62	3.11157
1163.52	2.92477
1166.41	2.27985
1169.3	2.86304
1172.2	3.9426
1175.09	1.92304
1177.98	3.29019
1180.87	2.72061
1183.77	2.22043
1186.66	1.27933
1189.55	0.026917
1192.44	1.14282
1195.34	0.016998
1198.23	1.9068
1201.12	0.852875
1204.02	0.238831
1206.91	2.44293
1209.8	0.444855
1212.69	1.77893
1215.59	1.41339
1218.48	0.203217
1221.37	1.34583
1224.26	0.729156
1227.16	2.90772
1230.05	0.339172
1232.94	1.52856
1235.84	0.293976
1238.73	0.267548
1241.62	0.374207
1244.51	2.69806
1247.41	2.3089
1250.3	1.54215
1253.19	2.30985
1256.08	1.66132
1258.98	3.56964
1261.87	4.10333
1264.76	3.16132
1267.65	0.880096
1270.55	2.25198
1273.44	1.21011
1276.33	0.832428
1279.23	2.62833
1282.12	1.92114
1285.01	0.688293
1287.9	0.006744
1290.8	2.14307
1293.69	1.4935
1296.58	0.534882
1299.47	0.038208
