Measurement: Raman, 780 nm, unoriented, Raman Data Processed
Mineral: Variscite
Rruff sample: R110139
Ideal chemistry: AlPO_4_2H_2_O
Locality: Boa Vista pegmatite, Conselheiro Pena, Doce valley, Minas Gerais, Brazil
Source: Luiz Menezes
Description: Red blocky crystals on a matrix of white albite
Raman shift (cm-1)	intensity
183.206	0
186.098	0.683594
188.991	6.60687
191.884	16.0658
194.776	23.6977
197.669	36.3514
200.562	38.9246
203.455	48.9526
206.347	57.25
209.24	60.7969
212.133	66.7418
215.025	72.9769
217.918	90.0851
220.811	109.478
223.703	126.879
226.596	121.102
229.489	76.24
232.382	36.4327
235.274	14.8994
238.167	9.35529
241.06	4.61139
243.952	3.38477
246.845	9.1535
249.738	16.8011
252.631	23.9056
255.523	33.7791
258.416	40.7903
261.309	38.4268
264.201	34.5665
267.094	34.1056
269.987	34.0728
272.879	29.5034
275.772	28.9806
278.665	26.7331
281.558	24.3203
284.45	20.8811
287.343	16.5367
290.236	17.7969
293.128	15.2315
296.021	10.1636
298.914	4.8974
301.806	0.608398
304.699	7.72113
307.592	4.62512
310.485	2.81201
313.377	1.57617
316.27	4.64642
319.163	8.63977
322.055	18.1405
324.948	24.0394
327.841	23.9213
330.733	26.2142
333.626	30.1081
336.519	35.2008
339.411	40.4489
342.304	39.1347
345.197	36.1227
348.09	33.3219
350.982	30.0949
353.875	28.4844
356.768	21.9793
359.66	12.6359
362.553	8.12018
365.446	3.3382
368.339	2.53015
371.231	7.784
374.124	11.2914
377.017	19.1899
379.909	29.8417
382.802	35.3234
385.695	38.0295
388.587	44.1771
391.48	46.1445
394.373	44.9446
397.265	44.7861
400.158	40.3046
403.051	45.396
405.944	57.2551
408.836	66.6769
411.729	90.4655
414.622	115.232
417.514	140.852
420.407	171.487
423.3	203.191
426.192	236.083
429.085	265.619
431.978	290.132
434.871	295.622
437.763	270.514
440.656	229.809
443.549	188.76
446.441	154.631
449.334	133.086
452.227	107.635
455.12	84.7303
458.012	61.8582
460.905	40.1491
463.798	22.2349
466.69	10.8132
469.583	0.258972
472.476	4.83841
475.368	1.04092
478.261	0.631287
481.154	2.48672
484.046	4.31189
486.939	4.4407
489.832	7.68829
492.725	7.93118
495.617	7.62143
498.51	6.79117
501.403	10.4179
504.295	9.0202
507.188	7.12668
510.081	7.71286
512.973	6.73819
515.866	7.10721
518.759	3.15021
521.652	4.14056
524.544	2.16498
527.437	0.94986
530.33	1.7193
533.222	3.82342
536.115	2.89224
539.008	2.10205
541.9	3.04388
544.793	1.57138
547.686	4.64945
550.579	6.44147
553.471	13.8914
556.364	14.3771
559.257	15.7295
562.149	17.1773
565.042	17.6189
567.935	14.806
570.827	17.7307
573.72	17.6237
576.613	16.3236
579.506	14.2544
582.398	16.0347
585.291	16.2315
588.184	16.1048
591.077	17.6541
593.969	19.8421
596.862	17.6165
599.755	20.1016
602.647	23.7913
605.54	25.1039
608.433	27.8255
611.325	27.7219
614.218	29.617
617.111	27.1752
620.004	20.9341
622.896	17.1127
625.789	11.8678
628.682	8.61352
631.574	5.58917
634.467	5.18485
637.36	6.10156
640.252	5.05081
643.145	2.32755
646.038	4.43832
648.931	1.65137
651.823	2.42865
654.716	3.00201
657.609	4.52689
660.501	0.349945
663.394	1.09866
666.287	1.05527
669.179	0.120789
672.072	2.09283
674.965	1.11108
677.857	0.09021
680.75	3.53781
683.643	1.12009
686.536	0.226654
689.428	1.61353
692.321	2.12076
695.214	0.456696
698.106	0.309448
700.999	0.366241
703.892	0.519012
706.784	2.51526
709.677	1.82507
712.57	3.65585
715.463	3.30261
718.355	1.099
721.248	1.83121
724.141	0.311371
727.033	1.20135
729.926	0.658447
732.819	3.44809
735.712	1.23438
738.604	1.99158
741.497	1.0477
744.39	0.661682
747.282	0.025879
750.175	4.88937
753.068	0.700165
755.96	1.28296
758.853	2.11386
761.746	0.59729
764.639	0.755341
767.531	2.20785
770.424	0.921936
773.317	1.52176
776.209	0.33252
779.102	3.22138
781.995	2.38666
784.887	2.05884
787.78	3.88236
790.673	5.96201
793.566	8.22476
796.458	5.62424
799.351	8.2215
802.244	6.53473
805.136	7.4487
808.029	7.00519
810.922	7.71423
813.814	6.21698
816.707	7.01608
819.6	8.07803
822.492	11.2197
825.385	7.70026
828.278	10.3029
831.171	8.24222
834.063	9.55808
836.956	8.30725
839.849	8.13669
842.741	9.41156
845.634	10.4786
848.527	12.3834
851.419	11.0157
854.312	8.90295
857.205	9.54214
860.098	9.9404
862.99	9.75037
865.883	8.53833
868.776	8.20154
871.668	5.5907
874.561	7.50665
877.454	5.30603
880.346	3.27908
883.239	4.22342
886.132	3.87857
889.025	1.90173
891.917	4.93234
894.81	2.41754
897.703	0.322784
900.595	2.1391
903.488	2.44202
906.381	0.233673
909.274	0.712799
912.166	1.92621
915.059	4.14725
917.952	0.585785
920.844	0.206604
923.737	1.66806
926.63	3.10025
929.522	3.77991
932.415	2.84515
935.308	0.288116
938.201	0.511017
941.093	1.3389
943.986	2.49045
946.879	3.6843
949.771	2.60934
952.664	1.1235
955.557	0.05484
958.449	0.516418
961.342	6.88168
964.235	10.4544
967.128	22.11
970.02	33.7024
972.913	50.6396
975.806	76.2276
978.698	115.113
981.591	171.747
984.484	218.459
987.376	239.97
990.269	238.49
993.162	212.696
996.054	190.743
998.947	176.099
1001.84	165.395
1004.73	154.973
1007.62	154.507
1010.52	150.61
1013.41	151.256
1016.3	161.658
1019.2	173.039
1022.09	190.788
1024.98	204.978
1027.87	205.305
1030.77	187.243
1033.66	138.497
1036.55	105.997
1039.44	86.3431
1042.34	77.4563
1045.23	76.7152
1048.12	79.7333
1051.02	85.3019
1053.91	88.8651
1056.8	97.4555
1059.69	103.228
1062.59	107.731
1065.48	114.58
1068.37	122.416
1071.27	136.802
1074.16	149.792
1077.05	145.065
1079.94	110.593
1082.84	66.9586
1085.73	34.0232
1088.62	19.363
1091.51	3.27301
1094.41	0.119873
1097.3	3.12009
1100.19	6.63303
1103.08	2.68579
1105.98	3.42709
1108.87	2.51614
1111.76	3.19855
1114.65	2.40961
1117.55	9.78906
1120.44	10.3355
1123.33	9.6969
1126.23	10.0016
1129.12	13.6171
1132.01	12.2816
1134.9	12.0658
1137.8	17.0998
1140.69	21.0462
1143.58	22.6739
1146.47	27.3447
1149.37	30.0049
1152.26	32.4834
1155.15	34.7823
1158.05	30.3558
1160.94	21.487
1163.83	13.1984
1166.72	8.43073
1169.62	5.07782
1172.51	0.857727
1175.4	0.864838
1178.3	1.901
1181.19	3.07675
1184.08	1.13867
1186.97	0.000458
1189.87	0.866699
1192.76	0.56192
1195.65	2.35849
1198.54	2.38507
1201.44	1.78381
1204.33	0.554352
1207.22	1.95749
1210.11	2.0954
1213.01	0.306763
1215.9	1.93799
1218.79	1.52481
1221.68	0.837555
1224.58	4.77185
1227.47	5.38037
1230.36	3.10104
1233.26	2.64554
1236.15	2.37387
1239.04	0.832886
1241.93	0.896881
1244.83	2.254
1247.72	1.50961
1250.61	0.832367
1253.51	0.382782
1256.4	1.44894
1259.29	1.29651
1262.18	3.99899
1265.08	2.77563
1267.97	2.1615
1270.86	0.507935
1273.75	0.723053
1276.65	1.69748
1279.54	1.50305
1282.43	0.443695
1285.33	0.09375
