Measurement: Raman, 532 nm, unoriented, Raman Data Processed
Mineral: Variscite
Rruff sample: R040180
Ideal chemistry: AlPO_4_2H_2_O
Locality: de Linde mine, Montgomery County, Arkansas, USA
Source: University of Arizona Mineral Museum
Description: Indistinct green crystals forming a glassy crust
Measured chemistry: Al_0.98_P_1.00_O_4_Â·2H_2_O
Raman shift (cm-1)	intensity
167.018	0
169.911	440.81
172.803	1120.42
175.696	2017.33
178.589	2307.38
181.482	944.379
184.374	213.75
187.267	62.9463
190.16	18.0781
193.052	133.618
195.945	385.033
198.838	689.47
201.731	402.052
204.623	263.915
207.516	466.238
210.409	1052.69
213.301	1936.11
216.194	2991.2
219.087	4763.72
221.979	7098.38
224.872	10162.6
227.765	9897.37
230.657	5429.32
233.55	3084.82
236.443	2252.95
239.336	1635.56
242.228	958.266
245.121	518.637
248.014	511.635
250.906	801.607
253.799	1017.01
256.692	894.164
259.584	794.51
262.477	642.584
265.37	561.027
268.263	611.781
271.155	691.361
274.048	705.387
276.941	665.756
279.833	647.174
282.726	626.225
285.619	689.021
288.512	769.822
291.404	816.809
294.297	898.705
297.19	502.209
300.082	219.965
302.975	26.7416
305.868	20.4204
308.76	11.1971
311.653	98.6211
314.546	404.56
317.438	1077.15
320.331	1949.18
323.224	2974.9
326.117	3295.59
329.009	1710.4
331.902	923.338
334.795	756.502
337.687	957.387
340.58	1288.29
343.473	1608.93
346.365	1941.55
349.258	2364.83
352.151	2616.1
355.044	2426.47
357.936	1520.93
360.829	940.352
363.722	406.211
366.614	67.3164
369.507	21.5977
372.4	42.877
375.293	62.1133
378.185	214.816
381.078	424.467
383.971	573.559
386.863	422.672
389.756	359.295
392.649	318.33
395.541	333.357
398.434	542.947
401.327	1042.02
404.219	1593.66
407.112	2377.94
410.005	3305.19
412.898	4529.34
415.79	5290.5
418.683	5358.69
421.576	5740.19
424.469	6366.53
427.361	7711.89
430.254	9176.22
433.147	10405
436.039	10865.9
438.932	9555.73
441.825	6875.51
444.717	4295.35
447.61	2749.13
450.503	1623.1
453.396	1095.69
456.288	868.643
459.181	779.135
462.074	714.338
464.966	644.918
467.859	698.008
470.752	643.873
473.644	929.498
476.537	1179.11
479.43	1247.17
482.322	1223.52
485.215	875.908
488.108	314.096
491.001	92.2188
493.893	22.783
496.786	-6.98718
499.679	20.9893
502.571	22.4683
505.464	23.4094
508.357	111.731
511.25	226.018
514.142	493.211
517.035	787.445
519.928	1163.15
522.82	1671.3
525.713	2085.85
528.606	2515.6
531.498	2775.8
534.391	2723.32
537.284	2588.64
540.177	2628.19
543.069	2621.2
545.962	2865.78
548.855	3001.54
551.747	3232.73
554.64	3564.03
557.533	3741.94
560.425	3895.36
563.318	3689.21
566.211	3252.64
569.104	2701.4
571.996	2184.19
574.889	1794.4
577.782	1200.19
580.674	1025.13
583.567	796.811
586.46	690.336
589.352	708.754
592.245	745.885
595.138	948.789
598.031	1062.1
600.923	1152.53
603.816	1323.6
606.709	1585.34
609.601	1755.37
612.494	1795.56
615.387	1685.44
618.279	1403.38
621.172	983.465
624.065	633.088
626.958	395.752
629.85	227.801
632.743	196.018
635.636	119.617
638.528	57.5566
641.421	54.2891
644.314	112.166
647.207	7.98633
650.099	90.7871
652.992	52.3164
655.885	36.8438
658.777	35.1758
661.67	45.4844
664.563	58.5488
667.455	23.0449
670.348	56.0137
673.241	127.936
676.134	91.2734
679.026	45.1484
681.919	58.5391
684.812	51.291
687.704	29.9316
690.597	95.6406
693.49	1.57031
696.382	67.3789
699.275	46.9766
702.168	117.35
705.061	147.867
707.953	61.877
710.846	140.685
713.739	38.4902
716.631	112.35
719.524	113.363
722.417	42.1465
725.309	73.0527
728.202	115.336
731.095	271.031
733.987	14.8867
736.88	113.881
739.773	5.59375
742.666	103.801
745.558	133.795
748.451	104.049
751.344	205.6
754.236	81.7773
757.129	67.8125
760.022	64.5469
762.915	107.416
765.807	163.682
768.7	0.759766
771.593	78.7988
774.485	164.816
777.378	102.691
780.271	150.269
783.163	329.789
786.056	253.525
788.949	250.111
791.842	380.641
794.734	403.789
797.627	475.51
800.52	518.289
803.412	525.734
806.305	280.356
809.198	377.67
812.091	419.107
814.983	323.414
817.876	295.125
820.769	302.873
823.661	242.047
826.554	131.359
829.447	134.465
832.339	176.619
835.232	250.4
838.125	188.185
841.018	205.164
843.91	186.68
846.803	193.723
849.696	143.297
852.588	233.736
855.481	149.822
858.374	117.807
861.266	122.447
864.159	7.34375
867.052	240.766
869.944	115.471
872.837	7.22266
875.73	71.2891
878.623	135.559
881.515	27.9707
884.408	91.1699
887.301	47.4414
890.193	0.763672
893.086	64.8555
895.979	41.3535
898.871	12.4766
901.764	49.7539
904.657	7.11328
907.55	14.7148
910.442	102.043
913.335	139.047
916.228	313.152
919.12	376.547
922.013	427.445
924.906	434.836
927.798	615.941
930.691	736.59
933.584	724.371
936.477	788.844
939.369	761.773
942.262	499.473
945.155	554.531
948.047	410.695
950.94	353.066
953.833	146.875
956.726	23.125
959.618	17.9375
962.511	39.6406
965.404	64.1289
968.296	13.7148
971.189	57.4922
974.082	118.125
976.974	33.4727
979.867	179.129
982.76	195.426
985.653	155.539
988.545	443.938
991.438	606.375
994.331	912.691
997.223	1248.83
1000.12	1750
1003.01	2089.57
1005.9	2928.09
1008.79	4063.08
1011.69	5717.55
1014.58	8281.99
1017.47	11450.1
1020.37	15101.8
1023.26	18779.7
1026.15	21126.2
1029.04	21202.8
1031.94	16536.6
1034.83	10996.8
1037.72	7373.08
1040.61	6161.32
1043.51	5494.24
1046.4	4646.12
1049.29	3624.92
1052.18	2573.72
1055.08	2090.07
1057.97	1684.41
1060.86	1679.53
1063.76	1688.11
1066.65	1888.34
1069.54	2555.72
1072.43	3548.53
1075.33	4374.09
1078.22	4810.94
1081.11	3845.51
1084	2466.33
1086.9	1384.62
1089.79	780.445
1092.68	354.172
1095.58	239.707
1098.47	129.602
1101.36	53.8711
1104.25	87.9492
1107.15	24.6719
1110.04	4.80859
1112.93	82.1094
1115.82	85.8047
1118.72	87.9102
1121.61	12.8008
1124.5	173.984
1127.39	203.883
1130.29	16.1992
1133.18	172.488
1136.07	147.25
1138.97	175.441
1141.86	65.5352
1144.75	303.188
1147.64	142.644
1150.54	532.016
1153.43	425.008
1156.32	704.875
1159.21	515.656
1162.11	447.844
1165	361.34
1167.89	259.812
1170.79	111.812
1173.68	113.949
1176.57	168.68
1179.46	51.043
1182.36	199.82
1185.25	13.6484
1188.14	179.019
1191.03	39.8281
1193.93	117.418
1196.82	177.75
1199.71	72.793
1202.61	204.246
1205.5	83.1992
1208.39	101
1211.28	189.699
1214.18	62.1445
1217.07	117.625
1219.96	115.965
1222.85	215.453
1225.75	66.1367
1228.64	208.434
1231.53	81.1211
1234.42	15.5039
1237.32	166.965
1240.21	134.707
1243.1	187.41
1246	84.5156
1248.89	91.7148
1251.78	66.4961
1254.67	167.559
1257.57	224.387
1260.46	44.1523
1263.35	87.9336
1266.24	154.871
1269.14	129.742
1272.03	153.871
1274.92	266.981
1277.82	216.469
1280.71	251.797
1283.6	171.891
1286.49	74.3594
1289.39	133.883
1292.28	130.66
1295.17	42.6562
1298.06	66.1641
1300.96	80.0391
1303.85	65.6328
