Measurement: Raman, 780 nm, unoriented, Raman Data Processed
Mineral: Variscite
Rruff sample: R100222
Ideal chemistry: AlPO_4_2H_2_O
Locality: Canarana, Mato Grosso, Brazil
Source: Luiz Menezes
Description: Green blocky, combination of pseudo-octahedral and pseudo-cubes on quartz
Raman shift (cm-1)	intensity
187.511	0
190.404	2.50671
193.296	7.30139
196.189	36.9219
199.082	59.9109
201.974	17.5419
204.867	27.002
207.76	68.6309
210.652	92.9594
213.545	127.796
216.438	196.306
219.331	287.419
222.223	537.414
225.116	898.067
228.009	741.681
230.901	345.375
233.794	216.53
236.687	167.313
239.579	92.0459
242.472	42.8658
245.365	16.9105
248.257	30.7733
251.15	49.1127
254.043	64.5261
256.936	73.4962
259.828	78.8783
262.721	38.3673
265.614	22.8763
268.506	29.5907
271.399	40.5756
274.292	37.2341
277.185	41.8285
280.077	40.771
282.97	44.2537
285.863	63.2769
288.755	59.3857
291.648	69.3749
294.541	76.6676
297.433	59.3353
300.326	29.3697
303.219	9.9718
306.111	12.1024
309.004	1.97217
311.897	1.02637
314.79	13.0508
317.682	36.3602
320.575	106.968
323.468	222.741
326.36	225.79
329.253	99.6538
332.146	56.6849
335.038	57.729
337.931	68.8672
340.824	82.9943
343.717	85.9849
346.609	114.554
349.502	133.697
352.395	145.292
355.287	118.809
358.18	59.4575
361.073	38.3888
363.965	23.873
366.858	1.28259
369.751	4.85669
372.644	6.36231
375.536	2.172
378.429	22.0851
381.322	50.2494
384.214	62.2972
387.107	61.7761
390	52.4174
392.892	48.5626
395.785	71.4296
398.678	74.9612
401.57	88.9388
404.463	114.231
407.356	168.684
410.249	240.304
413.141	336.48
416.034	390.981
418.927	389.043
421.819	420.519
424.712	448.42
427.605	526.498
430.498	643.504
433.39	778.425
436.283	835.426
439.176	714.427
442.068	497.71
444.961	306.899
447.854	192.323
450.746	128.411
453.639	98.1206
456.532	81.9476
459.425	80.5196
462.317	80.9182
465.21	74.3754
468.103	80.5491
470.995	79.2648
473.888	94.131
476.781	102.75
479.673	122.01
482.566	117.916
485.459	80.4085
488.351	34.1748
491.244	12.713
494.137	4.1106
497.029	6.52844
499.922	5.56836
502.815	6.10132
505.708	6.30518
508.6	1.52393
511.493	12.0155
514.386	32.0741
517.278	43.9277
520.171	60.3345
523.064	78.4825
525.957	116.928
528.849	139.748
531.742	147.732
534.635	142.56
537.527	141.611
540.42	138.867
543.313	133.115
546.205	138.773
549.098	152.832
551.991	171.175
554.884	195.248
557.776	202.22
560.669	199.528
563.562	188.288
566.454	168.372
569.347	130.833
572.24	106.294
575.132	74.2793
578.025	50.9786
580.918	48.6774
583.811	34.9775
586.703	34.1418
589.596	39.8384
592.489	47.1627
595.381	53.7478
598.274	71.6771
601.167	90.7655
604.059	103.639
606.952	122.606
609.845	124.098
612.737	141.151
615.63	123.507
618.523	95.6255
621.416	74.6588
624.308	54.544
627.201	33.1455
630.094	20.5563
632.986	17.9404
635.879	6.60376
638.772	4.72009
641.664	0.171875
644.557	3.38782
647.45	1.22766
650.342	1.91797
653.235	1.56274
656.128	3.85815
659.021	0.041504
661.913	4.29175
664.806	2.09778
667.699	1.99084
670.591	2.28601
673.484	0.755859
676.377	0.171509
679.269	4.38794
682.162	2.38196
685.055	3.56079
687.948	6.02161
690.84	11.652
693.733	1.03186
696.626	5.60657
699.518	10.0958
702.411	7.17468
705.304	4.95019
708.197	6.81396
711.089	8.15173
713.982	11.9373
716.875	12.9824
719.767	7.50977
722.66	7.57458
725.553	10.1558
728.445	0.188721
731.338	16.4482
734.231	5.21692
737.124	2.651
740.016	4.23804
742.909	2.03064
745.802	7.8529
748.694	6.08008
751.587	2.38928
754.48	1.927
757.372	1.75574
760.265	0.179199
763.158	3.82996
766.051	7.58008
768.943	9.56616
771.836	9.13428
774.729	6.6593
777.621	9.36279
780.514	17.0966
783.407	10.8254
786.299	17.0811
789.192	17.3429
792.085	34.2858
794.977	21.8435
797.87	21.7925
800.763	24.2339
803.655	27.8306
806.548	24.9768
809.441	30.9011
812.334	30.6173
815.226	24.5653
818.119	26.7513
821.012	31.74
823.904	17.0337
826.797	18.8032
829.69	18.4451
832.582	14.6356
835.475	12.5803
838.368	7.13159
841.261	14.8694
844.153	16.7114
847.046	13.7274
849.939	9.6261
852.831	11.7922
855.724	14.4296
858.617	15.6576
861.51	7.94556
864.402	11.5001
867.295	12.2832
870.188	5.07422
873.08	8.66126
875.973	4.81201
878.866	2.66882
881.758	4.41052
884.651	13.4873
887.544	4.55518
890.437	1.99634
893.329	1.76502
896.222	3.26306
899.115	4.57312
902.007	4.58228
904.9	7.48547
907.793	3.8457
910.685	6.18286
913.578	12.3358
916.471	18.2147
919.364	24.2369
922.256	30.0106
925.149	32.4239
928.042	41.3292
930.934	54.0393
933.827	55.7278
936.72	54.2909
939.612	49.8716
942.505	40.1952
945.398	26.7994
948.29	20.1821
951.183	19.0116
954.076	11.4059
956.968	4.50024
959.861	4.37207
962.754	2.75501
965.647	0.266968
968.539	0.690796
971.432	3.15698
974.325	0.604004
977.217	3.52405
980.11	9.73145
983.003	9.07629
985.895	7.85718
988.788	15.3879
991.681	18.2659
994.574	40.3612
997.466	48.0808
1000.36	66.8357
1003.25	91.038
1006.14	128.684
1009.04	185.112
1011.93	250.195
1014.82	361.189
1017.72	506.356
1020.61	666.065
1023.5	813.089
1026.39	1001.33
1029.29	1082.9
1032.18	795.741
1035.07	492.896
1037.96	330.02
1040.86	258.792
1043.75	239.14
1046.64	215.466
1049.54	157.851
1052.43	118.591
1055.32	100.029
1058.21	101.684
1061.11	109.794
1064	118.503
1066.89	138.172
1069.78	185.282
1072.68	253.494
1075.57	344.185
1078.46	390.218
1081.35	317.93
1084.25	192.796
1087.14	107.311
1090.03	64.5775
1092.92	41.2364
1095.82	16.6505
1098.71	4.28308
1101.6	6.7771
1104.5	7.18127
1107.39	11.5067
1110.28	5.02307
1113.17	5.13745
1116.07	0.051392
1118.96	0.853271
1121.85	1.75256
1124.74	3.87073
1127.64	7.03674
1130.53	2.89551
1133.42	3.09619
1136.32	0.93457
1139.21	9.39355
1142.1	11.2323
1144.99	12.84
1147.89	18.1116
1150.78	26.89
1153.67	52.4252
1156.57	49.0577
1159.46	55.8961
1162.35	41.3995
1165.24	32.5388
1168.13	26.9465
1171.03	17.0493
1173.92	15.8214
1176.81	10.946
1179.71	10.6267
1182.6	6.05579
1185.49	6.54175
1188.38	7.49585
1191.28	10.5281
1194.17	7.30554
1197.06	13.6508
1199.95	3.16296
1202.85	6.70874
1205.74	10.7415
1208.63	11.1696
1211.53	5.5603
1214.42	2.7085
1217.31	6.70056
1220.2	1.88953
1223.1	3.15027
1225.99	19.089
1228.88	1.06433
1231.78	0.543945
1234.67	0.751953
1237.56	8.90356
1240.45	9.30518
1243.35	6.4845
1246.24	9.93335
1249.13	4.11902
1252.02	4.30237
1254.92	2.55335
1257.81	5.453
1260.7	2.62134
1263.59	11.2959
1266.49	1.14587
1269.38	7.55176
1272.27	3.94092
1275.16	4.52734
1278.06	5.23169
1280.95	3.0271
1283.84	0.211426
