Measurement: Raman, 780 nm, unoriented, Raman Data Processed
Mineral: Variscite
Rruff sample: R050467
Ideal chemistry: AlPO_4_2H_2_O
Locality: Garland County, Arkansas, USA
Source: University of Arizona Mineral Museum
Description: Green crust of flattened crystals
Measured chemistry: Al_1.00_(P_0.98_V_0.02_)_Σ=1_O_4_·2H_2_O
Raman shift (cm-1)	intensity
159.833	0
162.726	0.716091
165.619	4.28919
168.511	8.9871
171.404	12.8599
174.297	19.5698
177.189	23.86
180.082	19.1306
182.975	8.61162
185.868	0.811035
188.76	1.50991
191.653	0.455215
194.546	4.62867
197.438	10.6818
200.331	12.4142
203.224	12.5905
206.117	22.5585
209.009	36.1552
211.902	53.1276
214.795	75.1309
217.687	106.929
220.58	153.663
223.473	218.556
226.365	252.355
229.258	179.012
232.151	103.44
235.043	71.8559
237.936	48.2092
240.829	32.5494
243.722	17.2729
246.614	11.0086
249.507	9.87233
252.4	12.3079
255.292	13.4707
258.185	11.9044
261.078	10.6699
263.971	7.36568
266.863	6.52951
269.756	9.31287
272.649	9.01577
275.541	8.72665
278.434	9.62719
281.327	9.56075
284.219	14.7607
287.112	18.768
290.005	15.627
292.897	15.7622
295.79	12.6395
298.683	9.73854
301.576	2.76659
304.468	2.84937
307.361	2.47847
310.254	2.45047
313.146	0.446537
316.039	6.62927
318.932	15.5465
321.825	27.5324
324.717	40.3865
327.61	32.647
330.503	17.5015
333.395	13.2001
336.288	14.7066
339.181	17.1209
342.074	18.6971
344.966	19.5161
347.859	20.272
350.752	18.838
353.644	18.5249
356.537	14.5411
359.43	10.4014
362.322	6.63104
365.215	3.94048
368.108	0.842377
371	1.81881
373.893	0.463547
376.786	3.58985
379.679	7.03181
382.571	10.9049
385.464	9.7786
388.357	9.13534
391.249	7.62861
394.142	6.58807
397.035	10.3495
399.928	16.3551
402.82	21.1027
405.713	33.0118
408.606	45.5641
411.498	60.898
414.391	77.209
417.284	81.3981
420.176	83.5868
423.069	91.484
425.962	103.669
428.854	119.235
431.747	139.068
434.64	151.063
437.533	140.129
440.425	110.091
443.318	71.8275
446.211	42.7483
449.103	27.0422
451.996	17.9522
454.889	12.7671
457.781	11.9117
460.674	12.5506
463.567	12.7456
466.46	14.0775
469.352	16.762
472.245	21.1407
475.138	24.6743
478.031	28.7324
480.923	27.2189
483.816	24.03
486.709	14.9876
489.601	5.46531
492.494	0.829529
495.387	3.20639
498.279	2.63798
501.172	2.06813
504.065	1.46044
506.957	1.07785
509.85	4.07174
512.743	9.05869
515.636	13.9593
518.528	19.3501
521.421	27.3001
524.314	35.0085
527.206	44.143
530.099	49.862
532.992	49.3365
535.885	46.7151
538.777	45.2734
541.67	42.5876
544.563	43.2501
547.455	45.2983
550.348	46.5613
553.241	48.6726
556.133	52.7189
559.026	55.6547
561.919	52.6682
564.812	49.7865
567.704	43.3666
570.597	33.8605
573.49	25.7243
576.382	19.2253
579.275	14.4086
582.168	11.3088
585.06	9.25205
587.953	9.20031
590.846	9.15915
593.739	11.0081
596.631	12.3806
599.524	15.4337
602.417	18.2899
605.309	21.0628
608.202	21.7491
611.095	24.7899
613.987	23.1639
616.88	20.2501
619.773	15.2182
622.665	11.7897
625.558	8.03977
628.451	4.28727
631.344	1.94185
634.236	1.61127
637.129	0.750984
640.022	0.476994
642.914	0.559338
645.807	0.301048
648.7	0.66547
651.593	0.580231
654.485	0.275009
657.378	0.478155
660.271	0.218224
663.163	0.884081
666.056	0.044235
668.949	0.478495
671.841	0.50915
674.734	0.319441
677.627	0.498226
680.52	1.13294
683.412	1.07135
686.305	1.08462
689.198	1.57583
692.09	1.19732
694.983	1.26274
697.876	1.18694
700.769	2.02867
703.661	1.32554
706.554	0.740562
709.447	0.76601
712.339	1.45864
715.232	0.271152
718.125	0.422033
721.017	0.386147
723.91	0.803976
726.803	1.24508
729.696	0.09939
732.588	0.543896
735.481	0.205776
738.374	0.390839
741.266	0.0839
744.159	0.246075
747.052	0.557228
749.944	0.523834
752.837	0.876148
755.73	0.003139
758.623	0.725296
761.515	0.689285
764.408	1.01006
767.301	1.15898
770.193	1.57717
773.086	1.9734
775.979	2.5832
778.871	3.07015
781.764	3.83537
784.657	3.64234
787.55	4.27443
790.442	5.24085
793.335	5.43462
796.228	5.35902
799.12	6.13621
802.013	6.02691
804.906	6.34849
807.798	5.88803
810.691	5.43336
813.584	4.94904
816.477	4.83074
819.369	4.51343
822.262	3.91036
825.155	3.47099
828.047	3.1936
830.94	3.17302
833.833	2.81757
836.726	2.22808
839.618	2.62848
842.511	2.91537
845.404	2.51902
848.296	1.61118
851.189	2.34071
854.082	1.83973
856.974	1.82841
859.867	1.83338
862.76	0.712021
865.653	1.24871
868.545	1.31712
871.438	0.529606
874.331	0.376816
877.223	1.118
880.116	0.228239
883.009	0.553707
885.901	0.204998
888.794	0.634762
891.687	0.053162
894.58	0.157721
897.472	0.058428
900.365	0.20809
903.258	0.255833
906.15	0.951468
909.043	1.43995
911.936	2.03755
914.828	2.05302
917.721	3.88744
920.614	4.44552
923.506	6.11349
926.399	6.39844
929.292	7.74937
932.185	8.08377
935.077	8.86679
937.97	8.21356
940.863	7.46247
943.755	7.09001
946.648	5.34982
949.541	4.50127
952.434	3.06002
955.326	1.76474
958.219	0.570583
961.112	0.510098
964.004	0.323849
966.897	0.418285
969.79	0.391994
972.683	0.279766
975.575	0.131657
978.468	0.670906
981.361	1.95112
984.253	2.1777
987.146	4.10536
990.039	6.14511
992.931	8.07957
995.824	11.7327
998.717	14.7856
1001.61	20.5573
1004.5	26.4711
1007.39	35.2804
1010.29	48.001
1013.18	64.8585
1016.07	91.4687
1018.97	122.343
1021.86	153.816
1024.75	179.72
1027.64	199.125
1030.54	187.52
1033.43	139.702
1036.32	97.5243
1039.21	73.6248
1042.11	65.9502
1045	60.4141
1047.89	48.6437
1050.79	36.2897
1053.68	25.3112
1056.57	20.985
1059.46	18.7611
1062.36	17.5806
1065.25	20.2118
1068.14	23.7411
1071.03	31.8899
1073.93	39.406
1076.82	47.5087
1079.71	47.6805
1082.61	34.8911
1085.5	22.2082
1088.39	11.7975
1091.28	7.21905
1094.18	3.28043
1097.07	1.40125
1099.96	0.283304
1102.85	0.089895
1105.75	0.281479
1108.64	1.07864
1111.53	0.590269
1114.42	0.885441
1117.32	0.023037
1120.21	0.054049
1123.1	0.263872
1126	0.648178
1128.89	0.586153
1131.78	0.567753
1134.67	0.329039
1137.57	0.187946
1140.46	0.3505
1143.35	1.11274
1146.24	1.69924
1149.14	3.02877
1152.03	2.76266
1154.92	4.50658
1157.82	4.48626
1160.71	4.67395
1163.6	3.26906
1166.49	2.24969
1169.39	1.44596
1172.28	1.76065
1175.17	1.41651
1178.06	0.879305
1180.96	1.384
1183.85	1.27604
1186.74	1.10691
1189.63	1.7598
1192.53	0.661406
1195.42	0.863024
1198.31	0.444677
1201.21	0.579596
1204.1	0.21867
1206.99	0.214315
1209.88	0.903536
1212.78	0.446838
1215.67	1.03374
1218.56	1.05093
1221.45	1.10815
1224.35	0.142248
1227.24	0.503704
1230.13	0.614149
1233.03	0.382195
1235.92	1.00919
1238.81	1.39129
1241.7	0.862623
1244.6	0.902161
1247.49	0.732058
1250.38	0.919762
1253.28	0.492661
1256.17	0.664562
1259.06	0.613214
1261.95	0.681355
1264.85	0.799444
1267.74	0.491096
1270.63	0.397429
1273.52	0.511591
1276.42	0.134499
1279.31	0.555374
1282.2	0.307362
1285.09	0.783772
