Measurement: Raman, 785 nm, unoriented, Raman Data Processed
Mineral: Variscite
Rruff sample: R040180
Ideal chemistry: AlPO_4_2H_2_O
Locality: de Linde mine, Montgomery County, Arkansas, USA
Source: University of Arizona Mineral Museum
Description: Indistinct green crystals forming a glassy crust
Measured chemistry: Al_0.98_P_1.00_O_4_Â·2H_2_O
Raman shift (cm-1)	intensity
143.679	0
146.572	40.2714
149.464	176.957
152.357	315.344
155.25	162.027
158.142	41.3926
161.035	6.34302
163.928	82.6572
166.821	266.9
169.713	429.055
172.606	365.815
175.499	370.488
178.391	372.044
181.284	322.762
184.177	278.951
187.069	265.671
189.962	328.106
192.855	464.541
195.748	678.06
198.64	948.131
201.533	787.013
204.426	578.606
207.318	633.019
210.211	1006.35
213.104	1499.22
215.996	2153.98
218.889	3037.26
221.782	4598.68
224.674	7054.86
227.567	7859.71
230.46	4804.3
233.353	2612.59
236.245	1826.22
239.138	1372.5
242.031	998.805
244.923	646.096
247.816	535.554
250.709	604.575
253.601	764.25
256.494	738.844
259.387	707.303
262.28	505.081
265.172	369.071
268.065	421.188
270.958	529.266
273.85	492.746
276.743	383.003
279.636	343.152
282.529	376.956
285.421	466.294
288.314	586.639
291.207	633.853
294.099	655.793
296.992	529.763
299.885	276.467
302.777	65.7012
305.67	28.4895
308.563	14.9617
311.455	7.52906
314.348	16.9012
317.241	97.8157
320.134	276.935
323.026	594.805
325.919	860.915
328.812	675.395
331.704	572.443
334.597	576.915
337.49	686.004
340.382	736.491
343.275	765.27
346.168	718.678
349.061	677.284
351.953	468.232
354.846	332.228
357.739	186.424
360.631	132.078
363.524	124.373
366.417	37.8203
369.31	63.4487
372.202	12.2886
375.095	95.9365
377.988	267.41
380.88	447.731
383.773	537.247
386.666	486.387
389.558	347.293
392.451	340.493
395.344	391.593
398.236	499.156
401.129	705.737
404.022	1005.56
406.915	1401.07
409.807	1966.7
412.7	2639.31
415.593	3206.36
418.485	3161.71
421.378	3120.66
424.271	3296.88
427.163	3741.86
430.056	4282.79
432.949	5024.59
435.842	5513.86
438.734	5207.18
441.627	3884.44
444.52	2560.97
447.412	1518.12
450.305	911.373
453.198	562.445
456.091	411.763
458.983	338.053
461.876	293.572
464.769	283.741
467.661	303.866
470.554	355.846
473.447	391.87
476.339	526.014
479.232	620.093
482.125	614.735
485.017	400.187
487.91	232.101
490.803	67.7407
493.696	18.727
496.588	12.134
499.481	13.5432
502.374	22.3365
505.266	36.1717
508.159	53.1255
511.052	190.794
513.944	277.108
516.837	410.254
519.73	644.07
522.623	863.339
525.515	1110.65
528.408	1355.33
531.301	1570.53
534.193	1535.66
537.086	1371.37
539.979	1203.29
542.871	1177.51
545.764	1147.04
548.657	1211.87
551.55	1219.64
554.442	1285.9
557.335	1332.69
560.228	1325.06
563.12	1287.05
566.013	1157.67
568.906	966.998
571.798	746.353
574.691	531.289
577.584	380.338
580.477	331.272
583.369	265.574
586.262	248.322
589.155	227.026
592.047	303.683
594.94	351.017
597.833	486.774
600.726	654.133
603.618	786.909
606.511	873.431
609.404	961.036
612.296	1073.58
615.189	961.724
618.082	824.875
620.974	630.701
623.867	407.275
626.76	260.857
629.653	152.168
632.545	123.498
635.438	50.73
638.331	4.72949
641.223	8.10986
644.116	24.344
647.009	26.9814
649.901	24.6477
652.794	36.5772
655.687	15.1106
658.58	1.00024
661.472	6.07837
664.365	8.44849
667.258	7.55737
670.15	31.6152
673.043	41.0984
675.936	10.1221
678.828	45.8103
681.721	26.5894
684.614	14.5749
687.506	14.2722
690.399	18.2063
693.292	33.323
696.185	55.9722
699.077	45.1511
701.97	51.5132
704.863	44.2998
707.755	68.7905
710.648	47.9145
713.541	71.9085
716.433	36.9145
719.326	16.1736
722.219	47.9219
725.112	21.6323
728.004	40.9109
730.897	4.65332
733.79	9.06226
736.682	35.4016
739.575	22.6782
742.468	48.9783
745.361	33.0061
748.253	66.3606
751.146	62.4983
754.039	25.7585
756.931	2.54639
759.824	36.9326
762.717	5.26269
765.609	20.6768
768.502	63.2273
771.395	7.9751
774.288	38.7275
777.18	88.885
780.073	41.2795
782.966	61.9961
785.858	91.7022
788.751	73.8728
791.644	79.3059
794.536	105.033
797.429	105.272
800.322	133.844
803.215	111.881
806.107	104.966
809	118.616
811.893	123.203
814.785	102.057
817.678	148.11
820.571	74.312
823.463	48.0759
826.356	52.9548
829.249	32.1531
832.141	54.2437
835.034	65.3196
837.927	68.6604
840.82	61.4106
843.712	19.5378
846.605	59.2837
849.498	30.5291
852.39	51.1992
855.283	33.1628
858.176	17.022
861.068	59.0168
863.961	76.3054
866.854	16.1843
869.747	28.1143
872.639	14.5945
875.532	14.9128
878.425	9.00806
881.317	37.8562
884.21	2.73706
887.103	33.9941
889.995	10.2949
892.888	39.0894
895.781	16.3906
898.674	5.58276
901.566	20.584
904.459	21.4382
907.352	40.6697
910.244	97.4158
913.137	100.072
916.03	135.872
918.923	112.296
921.815	185.608
924.708	237.662
927.601	282.521
930.493	309.247
933.386	291.386
936.279	272.378
939.171	286.229
942.064	273.486
944.957	273.676
947.85	161.81
950.742	90.7331
953.635	80.8096
956.528	48.6685
959.42	49.4939
962.313	15.044
965.206	20.0532
968.098	10.5471
970.991	22.8621
973.884	2.72241
976.777	17.0129
979.669	8.02905
982.562	50.2683
985.455	41.9163
988.347	88.7878
991.24	148.94
994.133	165.799
997.025	248.883
999.918	374.789
1002.81	477.129
1005.7	634.796
1008.6	853.615
1011.49	1179.47
1014.38	1641.2
1017.27	2356.04
1020.17	3255.8
1023.06	4214.53
1025.95	5103.17
1028.85	5598.33
1031.74	4867.62
1034.63	3382.57
1037.52	2486.74
1040.42	2179.4
1043.31	2203.85
1046.2	2038.25
1049.09	1685.87
1051.99	1241.83
1054.88	935.876
1057.77	782.27
1060.66	712.379
1063.56	634.664
1066.45	733.215
1069.34	960.144
1072.24	1313.17
1075.13	1719.78
1078.02	2015.34
1080.91	1788.54
1083.81	1145.81
1086.7	720.418
1089.59	407.798
1092.48	235.305
1095.38	123.232
1098.27	58.5078
1101.16	2.56812
1104.06	20.3779
1106.95	44.0164
1109.84	20.2488
1112.73	11.0205
1115.63	0.297607
1118.52	11.2087
1121.41	40.0144
1124.3	78.8479
1127.2	87.9504
1130.09	67.741
1132.98	26.2297
1135.88	9.00903
1138.77	20.1838
1141.66	35.759
1144.55	28.4995
1147.45	43.2844
1150.34	111.405
1153.23	150.192
1156.12	175.848
1159.02	196.181
1161.91	163.514
1164.8	118.393
1167.69	68.2747
1170.59	64.886
1173.48	38.3162
1176.37	38.3325
1179.27	28.825
1182.16	11.5098
1185.05	16.2639
1187.94	20.2293
1190.84	28.1882
1193.73	16.9507
1196.62	28.2324
1199.51	24.415
1202.41	42.25
1205.3	30.5271
1208.19	40.3347
1211.09	41.5303
1213.98	42.6792
1216.87	22.8528
1219.76	0.826172
1222.66	58.3147
1225.55	3.44995
1228.44	42.3948
1231.33	64.4316
1234.23	21.9983
1237.12	35.4477
