Measurement: Raman, 514 nm, unoriented, Raman Data Processed
Mineral: Variscite
Rruff sample: R040180
Ideal chemistry: AlPO_4_2H_2_O
Locality: de Linde mine, Montgomery County, Arkansas, USA
Source: University of Arizona Mineral Museum
Description: Indistinct green crystals forming a glassy crust
Measured chemistry: Al_0.98_P_1.00_O_4_Â·2H_2_O
Raman shift (cm-1)	intensity
96.161	0
100.34	38.229
104.516	102.769
108.691	537.414
112.864	1325.56
117.034	3726.41
121.203	6029.25
125.369	5959.74
129.534	1868.95
133.696	826.648
137.857	1486.46
142.016	2474.63
146.172	2865.74
150.327	1033.18
154.48	176.745
158.63	80.765
162.779	129.104
166.926	306.904
171.07	504.235
175.213	632.146
179.354	548.59
183.493	394.03
187.63	222.67
191.765	407.022
195.898	1000.35
200.029	1602.8
204.158	1153.15
208.285	1057.85
212.41	1214.42
216.533	2356.47
220.654	6376.26
224.773	12506.6
228.891	14817.3
233.006	8036.34
237.119	4170.7
241.231	2660.29
245.34	1492.13
249.448	815.208
253.553	1349.52
257.657	1104.03
261.758	586.342
265.858	653.846
269.956	805.625
274.052	980.133
278.146	632.417
282.237	482.959
286.327	365.419
290.416	956.55
294.502	1135.13
298.586	828.985
302.668	280.044
306.749	215.856
310.827	266.117
314.903	342.916
318.978	236.734
323.051	1363.12
327.121	2192.54
331.19	1528.43
335.257	1103.05
339.322	1445.82
343.385	1635.81
347.446	1754.95
351.505	1571.88
355.563	874.683
359.618	599.306
363.672	570.688
367.723	564.14
371.773	440.177
375.821	836.011
379.866	1604.81
383.91	2045.52
387.952	1860.99
391.992	1679.41
396.031	1745.65
400.067	2204.66
404.101	2807.32
408.134	4044.69
412.165	6228.58
416.193	7762.34
420.22	7857.94
424.245	7350.37
428.268	8404.51
432.289	10275.4
436.309	12772.8
440.326	12069
444.342	7854.73
448.355	4555.07
452.367	2505.88
456.377	1449.19
460.385	1312.94
464.391	1237.1
468.395	1067.25
472.398	991.963
476.398	774.613
480.397	1241.75
484.394	1236.74
488.389	683.768
492.382	218.566
496.373	96.309
500.362	57.248
504.349	127.744
508.335	361.057
512.319	416.629
516.3	981.783
520.28	1568.54
524.259	2338.2
528.235	3437
532.209	4573.2
536.182	4185.19
540.152	3205.48
544.121	2906.59
548.088	2382.03
552.053	2548.67
556.017	2537.45
559.978	2904.9
563.938	2883.42
567.895	2638.4
571.851	2196.18
575.805	1726.27
579.758	1100.92
583.708	942.008
587.657	871.348
591.603	1436.09
595.548	1663.35
599.491	1861.45
603.432	2152.61
607.372	2956.82
611.309	3327.19
615.245	3295.63
619.179	2879.1
623.111	1809.76
627.041	1428.81
630.97	684.049
634.896	391.479
638.821	628.805
642.744	87.797
646.665	116.428
650.584	99.688
654.502	335.33
658.418	137.295
662.331	81.596
666.244	153.059
670.154	122.898
674.062	8.266
677.969	23.213
681.874	61.73
685.777	204.764
689.678	227.822
693.577	62.617
697.475	60.021
701.371	40.457
705.265	313.17
709.157	131.18
713.047	17.777
716.936	316.5
720.823	402.477
724.708	196.771
728.591	460.166
732.472	382.963
736.352	202.021
740.23	217.367
744.106	204.16
747.98	345.48
751.853	301.025
755.723	53.598
759.592	409.836
763.459	253.809
767.325	0.666
771.188	473.287
775.05	553.816
778.91	442.924
782.768	509.615
786.625	607.895
790.479	756.756
794.332	740.205
798.183	591.705
802.033	567.025
805.88	931.766
809.726	730.34
813.57	555.455
817.413	594.242
821.253	689.107
825.092	595.018
828.929	515.051
832.764	604.156
836.598	326.582
840.429	409.225
844.259	218.918
848.088	122.033
851.914	272.461
855.739	49.695
859.562	145.59
863.383	406.672
867.203	160.486
871.02	198.059
874.836	138.412
878.65	24.295
882.463	47.982
886.274	143.414
890.083	58.98
893.89	149.648
897.695	17.049
901.499	121.512
905.301	256.305
909.102	133.781
912.9	271.846
916.697	727.281
920.492	759.449
924.285	841.834
928.077	889.547
931.867	828.693
935.655	996.566
939.442	1374.34
943.226	1163.13
947.009	841.934
950.791	735.764
954.57	702.631
958.348	648.555
962.124	565.633
965.899	477.166
969.671	546.701
973.442	373.619
977.211	884.803
980.979	831.295
984.745	1173.19
988.509	1092.19
992.271	1216.65
996.032	1383.6
999.791	2133.46
1003.55	2241.61
1007.3	3081.73
1011.06	4507.2
1014.81	6089.38
1018.56	9119.79
1022.31	13201.1
1026.06	18086.7
1029.8	22277.5
1033.55	18690.5
1037.29	11804.1
1041.03	9230.07
1044.77	9449.32
1048.5	8823.83
1052.24	6544.72
1055.97	4633.37
1059.7	4075.93
1063.43	3604.45
1067.16	3353.04
1070.89	3365.74
1074.61	4973.82
1078.34	7022.89
1082.06	7176.93
1085.78	4950.45
1089.5	2484.4
1093.21	1556.48
1096.93	1075.32
1100.64	698.555
1104.35	608.619
1108.06	9.145
1111.77	248.559
1115.48	127.92
1119.18	221.125
1122.89	559.85
1126.59	605.74
1130.29	141.088
1133.99	284.883
1137.68	415.648
1141.38	83.682
1145.07	151.457
1148.76	13.773
1152.45	50.83
1156.14	109.117
1159.83	410.924
1163.51	464.836
1167.19	362.76
1170.88	89.121
1174.56	122.615
1178.23	225.879
1181.91	134.873
1185.59	343.367
1189.26	374.408
1192.93	250.666
1196.6	327.475
1200.27	118.342
1203.94	608.557
1207.6	177.352
1211.27	243.838
1214.93	246.223
1218.59	4.535
1222.25	268.135
1225.9	168.992
1229.56	186.463
1233.21	234.17
1236.86	425.818
1240.51	370.303
1244.16	223.996
1247.81	561.975
1251.45	374.24
1255.1	157.066
1258.74	77.076
1262.38	101.711
1266.02	409.064
1269.66	137.99
1273.29	405.582
1276.93	58.213
1280.56	332.338
1284.19	104.533
1287.82	144.033
1291.45	184.059
1295.07	62.156
1298.7	20.66
1302.32	236.188
1305.94	239.496
1309.56	240.961
1313.18	16.414
1316.8	196.582
1320.41	90.082
1324.02	86.902
1327.63	406.906
1331.24	23.707
1334.85	45.016
1338.46	134.664
1342.06	387.297
1345.67	219.766
1349.27	191.188
1352.87	524.07
1356.47	628.91
1360.07	533.191
1363.66	352.277
1367.25	157.082
1370.85	614.125
1374.44	491.867
1378.03	363.68
1381.61	498.133
1385.2	634.012
1388.78	385.656
1392.37	667.5
1395.95	573.434
1399.53	513.688
1403.1	549.672
1406.68	266.238
1410.26	548.035
1413.83	492.055
1417.4	369.828
1420.97	525.684
1424.54	211.516
1428.1	290.047
1431.67	208.734
1435.23	543.969
1438.8	653.684
1442.36	497.359
1445.91	632.039
1449.47	513.793
1453.03	733.977
1456.58	859.98
1460.13	599.66
1463.68	334.91
1467.23	296.176
1470.78	368.383
1474.33	215.438
1477.87	161.988
1481.42	297.953
1484.96	443.996
1488.5	61.293
1492.04	341.98
1495.57	250.242
1499.11	243.395
1502.64	162.785
1506.17	0
