Measurement: Raman, 532 nm, unoriented, Raman Data Processed
Mineral: Variscite
Rruff sample: R110139
Ideal chemistry: AlPO_4_2H_2_O
Locality: Boa Vista pegmatite, Conselheiro Pena, Doce valley, Minas Gerais, Brazil
Source: Luiz Menezes
Description: Red blocky crystals on a matrix of white albite
Raman shift (cm-1)	intensity
179.202	0
182.094	0.376492
184.987	1.06793
187.88	4.15503
190.773	7.21067
193.665	10.464
196.558	14.245
199.451	16.3612
202.343	19.2803
205.236	21.8637
208.129	23.3745
211.021	25.2259
213.914	25.2733
216.807	25.2562
219.699	26.0311
222.592	25.9174
225.485	24.1624
228.377	16.9739
231.27	9.26704
234.163	5.62398
237.056	3.50854
239.948	1.69356
242.841	0.423721
245.734	0.412891
248.626	0.141449
251.519	0.266602
254.412	1.24361
257.305	2.57961
260.197	4.25838
263.09	5.58607
265.983	6.13126
268.875	8.29122
271.768	8.86953
274.661	8.39446
277.553	7.7323
280.446	5.97568
283.339	6.46394
286.232	5.78673
289.124	4.98224
292.017	4.42008
294.91	4.86814
297.802	3.27586
300.695	2.94218
303.588	0.777691
306.481	0.365829
309.373	0.196283
312.266	0.233561
315.159	0.670578
318.051	0.153498
320.944	0.036974
323.837	0.620039
326.729	0.981007
329.622	1.7796
332.515	2.47696
335.408	3.48777
338.3	4.09149
341.193	4.97617
344.086	4.14112
346.978	4.21754
349.871	3.34665
352.764	3.13482
355.656	3.12628
358.549	1.22378
361.442	1.03828
364.334	0.456741
367.227	0.420612
370.12	0.154232
373.012	0.721794
375.905	0.296623
378.798	0.379265
381.691	1.05336
384.583	1.9848
387.476	2.25148
390.369	2.45517
393.261	3.07233
396.154	3.2921
399.047	5.12488
401.94	6.44976
404.832	9.18519
407.725	12.178
410.618	15.9734
413.51	21.0131
416.403	26.6065
419.296	33.2374
422.188	38.8082
425.081	44.3577
427.974	49.7319
430.866	54.1868
433.759	56.2162
436.652	53.7058
439.545	49.2935
442.437	43.9435
445.33	37.7953
448.223	33.2572
451.115	28.9361
454.008	23.5125
456.901	19.9643
459.793	14.8559
462.686	10.8054
465.579	7.04323
468.472	4.40609
471.364	2.2823
474.257	2.05185
477.15	1.50821
480.042	2.01224
482.935	3.45177
485.828	3.92978
488.721	4.38277
491.613	4.59104
494.506	4.66139
497.399	4.77388
500.291	4.3365
503.184	3.89533
506.077	3.68892
508.969	2.93154
511.862	2.9484
514.755	2.25353
517.648	2.34001
520.54	1.63141
523.433	0.291117
526.326	0.204304
529.218	0.111376
532.111	0.058285
535.004	0.324978
537.896	0.814211
540.789	0.831385
543.682	0.350834
546.575	0.052895
549.467	0.852289
552.36	0.388649
555.253	1.28979
558.145	1.86262
561.038	2.19401
563.931	2.72971
566.823	2.83687
569.716	3.29865
572.609	3.53233
575.502	3.40622
578.394	4.0478
581.287	3.65672
584.18	3.97863
587.072	3.89334
589.965	4.12912
592.858	4.07436
595.75	4.54916
598.643	3.36298
601.536	3.41317
604.428	3.11268
607.321	3.00034
610.214	2.31418
613.107	2.28714
615.999	2.33312
618.892	1.83129
621.785	1.50722
624.677	1.02335
627.57	0.648502
630.463	0.992949
633.356	0.521051
636.248	0.527197
639.141	0.85465
642.034	0.74736
644.926	0.80003
647.819	1.29021
650.712	1.06588
653.604	0.902203
656.497	1.44844
659.39	1.07872
662.283	1.00657
665.175	0.912033
668.068	1.11667
670.961	0.443531
673.853	0.807365
676.746	0.270575
679.639	0.270908
682.531	0.808781
685.424	0.676914
688.317	0.424519
691.21	0.026037
694.102	0.63847
696.995	0.563774
699.888	0.369564
702.78	0.383003
705.673	0.281073
708.566	0.182901
711.458	0.147285
714.351	0.564796
717.244	0.125126
720.136	0.030508
723.029	0.002644
725.922	0.192385
728.815	0.368633
731.707	0.222897
734.6	0.074661
737.493	0.051485
740.385	0.768534
743.278	0.426031
746.171	0.153635
749.063	0.338634
751.956	0.449833
754.849	0.397362
757.742	0.251163
760.634	0.481007
763.527	0.262743
766.42	0.278723
769.312	0.359249
772.205	0.019547
775.098	0.513601
777.99	0.498457
780.883	0.069801
783.776	0.426432
786.669	0.443165
789.561	0.847425
792.454	0.25457
795.347	0.596453
798.239	0.869867
801.132	0.619192
804.025	0.660721
806.918	0.830061
809.81	0.252989
812.703	1.08075
815.596	0.496277
818.488	1.02027
821.381	0.901628
824.274	1.08417
827.166	1.20778
830.059	1.24898
832.952	0.76762
835.845	1.26265
838.737	1.49357
841.63	1.49019
844.523	1.53947
847.415	1.49058
850.308	1.31282
853.201	1.29382
856.093	1.64235
858.986	1.95911
861.879	1.3622
864.771	1.30006
867.664	0.71739
870.557	1.1449
873.45	1.05237
876.342	1.0675
879.235	0.37825
882.128	0.809355
885.02	1.06904
887.913	0.734291
890.806	0.81156
893.698	0.091255
896.591	0.106907
899.484	0.258923
902.377	0.023098
905.269	0.429752
908.162	0.013453
911.055	0.380896
913.947	0.255997
916.84	0.465637
919.733	0.900513
922.625	0.832478
925.518	0.208504
928.411	0.412622
931.304	0.193289
934.196	0.072443
937.089	0.179567
939.982	0.228004
942.875	0.056606
945.767	0.21077
948.66	0.690947
951.553	0.218838
954.445	0.769321
957.338	0.676308
960.231	1.125
963.123	2.81215
966.016	4.55965
968.909	6.93517
971.802	10.9822
974.694	18.6507
977.587	28.5363
980.48	40.2162
983.372	52.611
986.265	60.6356
989.158	62.4828
992.05	58.0129
994.943	50.8569
997.836	44.6517
1000.73	39.7622
1003.62	36.0706
1006.51	32.3072
1009.41	29.8238
1012.3	28.6029
1015.19	27.6089
1018.09	28.8842
1020.98	30.4465
1023.87	32.1257
1026.76	32.8888
1029.66	30.6739
1032.55	24.5471
1035.44	18.1799
1038.33	15.0217
1041.23	13.3264
1044.12	14.6866
1047.01	16.0994
1049.9	17.4072
1052.8	19.2173
1055.69	21.0875
1058.58	22.9587
1061.47	25.7616
1064.37	27.367
1067.26	30.2895
1070.15	31.9118
1073.05	33.6824
1075.94	31.3202
1078.83	26.2369
1081.72	16.8814
1084.62	9.42374
1087.51	4.05558
1090.4	0.712837
1093.3	0.056473
1096.19	0.653236
1099.08	1.04053
1101.97	1.11218
1104.87	0.366409
1107.76	0.405933
1110.65	0.440769
1113.54	1.20092
1116.44	1.40711
1119.33	1.99714
1122.22	1.37864
1125.12	2.05809
1128.01	2.37569
1130.9	2.056
1133.79	2.76161
1136.68	2.42326
1139.58	2.76424
1142.47	3.18859
1145.36	3.7194
1148.26	3.88023
1151.15	3.65776
1154.04	3.14164
1156.93	2.8189
1159.83	1.59476
1162.72	1.30702
1165.61	0.469873
1168.51	0.249485
1171.4	0.18536
1174.29	0.08918
1177.18	0.253349
1180.08	0.006721
1182.97	0.001431
1185.86	0.243586
1188.75	0.009754
1191.65	0.905548
1194.54	0.098221
1197.43	0.454613
1200.33	0.234184
1203.22	0.644907
1206.11	0.202131
1209	0.009689
1211.9	0.509649
1214.79	0.575378
1217.68	0.628384
1220.57	0.533648
1223.47	0.3048
1226.36	0.492022
1229.25	0.399923
1232.14	0.649387
1235.04	0.638927
1237.93	0.445044
1240.82	0.681391
1243.71	0.707994
1246.61	0.637493
1249.5	0.811085
1252.39	0.142675
1255.29	0.690516
1258.18	0.38995
1261.07	0.73678
1263.96	0.371796
1266.86	0.591015
1269.75	0.085752
1272.64	0.03285
1275.54	0.270172
1278.43	0.527344
1281.32	0.088608
1284.21	0.454016
1287.11	0.615242
1290	0.534744
1292.89	0.13728
1295.78	0.648594
1298.68	0.604031
1301.57	0.020838
