Measurement: Raman, 532 nm, unoriented, Raman Data Processed
Mineral: Variscite
Rruff sample: R050467
Ideal chemistry: AlPO_4_2H_2_O
Locality: Garland County, Arkansas, USA
Source: University of Arizona Mineral Museum
Description: Green crust of flattened crystals
Measured chemistry: Al_1.00_(P_0.98_V_0.02_)_Σ=1_O_4_·2H_2_O
Raman shift (cm-1)	intensity
159.468	0
162.361	8.50171
165.254	36.458
168.147	74.5603
171.039	112.432
173.932	165.684
176.825	227.415
179.717	181.851
182.61	85.1983
185.503	33.9599
188.395	7.30832
191.288	2.43088
194.181	3.12784
197.073	1.98673
199.966	4.4845
202.859	4.97617
205.752	24.6637
208.644	56.8818
211.537	91.0541
214.43	134.026
217.322	177.335
220.215	246.373
223.108	350.988
226	425.568
228.893	321.517
231.786	191.221
234.679	146.246
237.571	99.991
240.464	49.1714
243.357	20.3459
246.249	9.66626
249.142	11.434
252.035	11.2944
254.928	11.8584
257.82	15.2892
260.713	16.243
263.606	11.1396
266.498	8.80182
269.391	6.88367
272.284	14.9506
275.176	25.5154
278.069	31.5198
280.962	30.874
283.854	39.7879
286.747	46.7465
289.64	38.3958
292.533	26.8622
295.425	25.7403
298.318	25.5572
301.211	3.93637
304.103	11.3519
306.996	8.36444
309.889	8.88986
312.781	25.9627
315.674	49.2032
318.567	83.3688
321.46	138.624
324.352	192.108
327.245	152.476
330.138	55.7979
333.03	22.7953
335.923	25.1172
338.816	38.5048
341.709	62.1215
344.601	83.1243
347.494	118.801
350.387	156.882
353.279	176.835
356.172	147.621
359.065	94.1683
361.957	56.8805
364.85	34.8975
367.743	15.3787
370.635	0.921478
373.528	2.24979
376.421	2.02228
379.314	8.45444
382.206	12.8687
385.099	14.1763
387.992	10.8559
390.884	5.24704
393.777	1.65179
396.67	0.19455
399.562	4.8389
402.455	20.8069
405.348	44.794
408.241	76.7366
411.133	111.207
414.026	147.493
416.919	174.917
419.811	207.408
422.704	239.498
425.597	285.336
428.49	332.975
431.382	388.016
434.275	422.037
437.168	403.098
440.06	319.926
442.953	214.154
445.846	132.645
448.738	84.1388
451.631	54.6637
454.524	44.7651
457.416	42.7612
460.309	49.6574
463.202	58.8943
466.095	63.5268
468.987	74.1083
471.88	88.8591
474.773	99.2438
477.665	111.818
480.558	107.676
483.451	93.4644
486.344	57.8372
489.236	30.4881
492.129	6.08343
495.022	2.75107
497.914	7.81308
500.807	8.71866
503.7	3.0437
506.592	0.162628
509.485	8.40903
512.378	17.0003
515.27	29.1396
518.163	44.6278
521.056	61.6728
523.949	84.475
526.841	104.44
529.734	121.513
532.627	135.418
535.519	139.775
538.412	144.325
541.305	154.838
544.197	163.47
547.09	179.65
549.983	197.431
552.876	218.798
555.768	235.286
558.661	246.671
561.554	243.962
564.446	229.494
567.339	200.476
570.232	165.706
573.125	132.18
576.017	101.922
578.91	79.1413
581.803	60.4655
584.695	46.2006
587.588	39.7006
590.481	36.3178
593.373	33.9565
596.266	36.1296
599.159	36.0583
602.052	39.6975
604.944	44.4013
607.837	45.5638
610.73	46.9815
613.622	45.3734
616.515	39.8504
619.408	32.4922
622.3	21.7704
625.193	16.6696
628.086	10.6847
630.979	5.22653
633.871	2.73831
636.764	1.88922
639.657	1.17813
642.549	1.08191
645.442	1.30389
648.335	4.22272
651.227	0.70047
654.12	2.43155
657.013	0.295624
659.905	0.631989
662.798	1.48377
665.691	0.124023
668.584	0.394287
671.476	1.67752
674.369	0.489594
677.262	1.49908
680.154	2.95529
683.047	6.47327
685.94	5.14694
688.832	5.93948
691.725	5.78586
694.618	5.99286
697.511	5.24368
700.403	5.64236
703.296	5.27823
706.189	4.15399
709.081	5.07034
711.974	4.54245
714.867	3.38849
717.76	2.93417
720.652	0.830841
723.545	1.45581
726.438	0.738251
729.33	3.50946
732.223	0.798584
735.116	0.931763
738.008	0.866028
740.901	2.66455
743.794	2.93823
746.687	1.5625
749.579	0.365753
752.472	2.72009
755.365	0.152496
758.257	3.02225
761.15	4.05508
764.043	6.27066
766.935	5.15314
769.828	6.02344
772.721	9.24344
775.614	10.3568
778.506	12.2982
781.399	13.966
784.292	15.7277
787.184	18.1897
790.077	21.4345
792.97	22.1767
795.862	22.3852
798.755	24.512
801.648	24.7378
804.54	23.3255
807.433	25.6785
810.326	25.2172
813.219	20.6356
816.111	20.604
819.004	18.5695
821.897	16.5713
824.789	14.3266
827.682	13.584
830.575	11.7303
833.467	11.003
836.36	10.3112
839.253	8.12164
842.146	11.1433
845.038	6.34619
847.931	6.98178
850.824	4.29294
853.716	6.19852
856.609	6.54767
859.502	6.05576
862.394	1.68381
865.287	3.42581
868.18	0.577759
871.073	3.62506
873.965	1.0368
876.858	1.62424
879.751	0.17218
882.643	0.676056
885.536	0.566284
888.429	0.285248
891.322	1.08997
894.214	1.4108
897.107	0.186737
900	0.068512
902.892	3.64743
905.785	4.98968
908.678	6.69305
911.57	7.8425
914.463	10.8941
917.356	14.5876
920.249	17.6834
923.141	21.2163
926.034	25.8658
928.927	26.0636
931.819	25.8504
934.712	29.6006
937.605	29.4764
940.497	33.1228
943.39	26.3008
946.283	22.2183
949.176	17.5286
952.068	12.3215
954.961	4.13736
957.854	2.57312
960.746	2.64166
963.639	1.80127
966.532	2.59473
969.424	0.816559
972.317	0.96225
975.21	1.0144
978.102	6.49353
980.995	11.8275
983.888	14.5625
986.781	20.0519
989.673	27.6432
992.566	38.628
995.459	54.5513
998.351	72.0464
1001.24	99.8592
1004.14	129.736
1007.03	171.302
1009.92	237.029
1012.82	321.93
1015.71	437.516
1018.6	589.502
1021.49	733.21
1024.39	837.702
1027.28	905.481
1030.17	849.372
1033.06	615.778
1035.96	394.564
1038.85	268.798
1041.74	205.807
1044.63	170.139
1047.53	132.075
1050.42	96.4324
1053.31	68.2027
1056.2	53.6868
1059.1	46.4906
1061.99	47.3462
1064.88	56.3111
1067.78	73.2581
1070.67	98.4763
1073.56	122.317
1076.45	146.58
1079.35	150.599
1082.24	113.312
1085.13	69.2786
1088.03	37.1835
1090.92	19.6712
1093.81	8.9379
1096.7	4.19379
1099.6	1.90106
1102.49	0.268982
1105.38	3.17535
1108.27	4.5802
1111.17	1.39038
1114.06	2.66791
1116.95	2.97876
1119.85	0.63678
1122.74	1.06586
1125.63	0.344604
1128.52	2.3696
1131.42	2.83087
1134.31	1.57675
1137.2	4.49149
1140.09	7.55292
1142.99	5.92798
1145.88	9.66312
1148.77	9.87375
1151.66	12.1762
1154.56	16.65
1157.45	15.9291
1160.34	16.5462
1163.23	12.1643
1166.13	6.61014
1169.02	7.11114
1171.91	3.18771
1174.81	3.10187
1177.7	1.241
1180.59	1.34467
1183.48	1.66159
1186.38	1.54224
1189.27	2.21191
1192.16	1.85425
1195.06	1.16565
1197.95	2.91052
1200.84	0.915405
1203.73	2.42639
1206.63	1.47317
1209.52	1.19717
1212.41	3.63385
1215.3	5.43634
1218.2	2.2533
1221.09	5.70544
1223.98	1.73178
1226.88	2.88379
1229.77	1.36658
1232.66	2.51285
1235.55	3.62656
1238.44	2.91238
1241.34	3.45691
1244.23	2.92694
1247.12	1.4375
1250.02	2.31607
1252.91	1.34412
1255.8	1.95102
1258.69	1.97577
1261.59	3.88171
1264.48	1.48224
1267.37	1.52606
1270.27	1.9245
1273.16	2.23529
1276.05	3.93497
1278.94	4.50263
1281.84	2.03006
