Measurement: Raman, 532 nm, unoriented, Raman Data Processed
Mineral: Varulite
Rruff sample: R060740
Ideal chemistry: NaCaMn^2+^_3_(PO_4_)_3_
Locality: Kaatiala, Finland
Source: Michael Scott
Description: Brown massive
Raman shift (cm-1)	intensity
120.077	0
123.451	84.048
126.826	80.253
130.201	97.556
133.576	130.078
136.951	154.463
140.326	199.08
143.7	180.178
147.075	238.374
150.45	251.584
153.825	238.243
157.2	230.614
160.574	224.837
163.949	208.759
167.324	178.214
170.699	204.604
174.074	191.417
177.449	185.566
180.823	152.95
184.198	155.209
187.573	131.91
190.948	167.533
194.323	174.546
197.697	198.438
201.072	226.169
204.447	270.42
207.822	298.378
211.197	339.603
214.572	386.799
217.946	435.783
221.321	443.166
224.696	427.366
228.071	457.581
231.445	465.613
234.82	517.709
238.195	520.028
241.57	565.16
244.945	583.539
248.32	534.601
251.694	490.516
255.069	455.972
258.444	454.502
261.819	414.222
265.194	391.365
268.569	364.776
271.943	343.204
275.318	311.504
278.693	293.336
282.068	277.9
285.443	236.384
288.817	232.768
292.192	201.563
295.567	185.451
298.942	170.868
302.317	142.058
305.691	145.733
309.066	125.437
312.441	126.227
315.816	98.178
319.191	71.891
322.565	70.711
325.94	77.976
329.315	88.584
332.69	83.516
336.065	125.994
339.44	164.024
342.814	175.457
346.189	161.825
349.564	168.024
352.939	118.882
356.314	75.559
359.688	61.185
363.063	35.593
366.438	19.678
369.813	11.29
373.188	7.062
376.562	17.557
379.937	6.135
383.312	22.7
386.687	23.234
390.062	46.901
393.437	63.401
396.811	90.985
400.186	120.875
403.561	140.726
406.936	170.113
410.311	182.866
413.685	231.974
417.06	279.882
420.435	331.592
423.81	394.811
427.185	438.53
430.56	461.627
433.934	525.471
437.309	539.039
440.684	529.785
444.059	478.203
447.434	446.276
450.808	483.281
454.183	538.818
457.558	584.633
460.933	606.912
464.308	591.277
467.682	551.06
471.057	432.098
474.432	373.747
477.807	333.878
481.182	271.266
484.556	246.508
487.931	198.533
491.306	166.517
494.681	120.584
498.056	68.763
501.431	57.183
504.805	21.612
508.18	0.466
511.555	24.572
514.93	29.371
518.305	33.826
521.68	28.22
525.054	13.308
528.429	9.654
531.804	7.63
535.179	10.456
538.554	26.733
541.928	63.592
545.303	107.198
548.678	164.541
552.053	165.671
555.428	199.069
558.802	210.571
562.177	223.303
565.552	245.521
568.927	287.638
572.302	339.214
575.677	391.935
579.051	422.676
582.426	495.491
585.801	590.336
589.176	674.486
592.551	771.719
595.925	825.477
599.3	796.296
602.675	719.36
606.05	670.158
609.425	616.506
612.799	525.677
616.174	391.912
619.549	299.251
622.924	227.136
626.299	169.232
629.674	136.698
633.048	114.167
636.423	122.534
639.798	121.516
643.173	120.437
646.548	133.966
649.922	129.512
653.297	138.489
656.672	89.084
660.047	55.795
663.422	39.431
666.797	8.641
670.171	5.32
673.546	3.637
676.921	10.652
680.296	7.44
683.67	1.216
687.045	4.297
690.42	8.809
693.795	4.199
697.17	16.618
700.545	24.364
703.919	0.714
707.294	12.513
710.669	9.105
714.044	1.229
717.419	4.019
720.794	3.021
724.168	1.772
727.543	13.825
730.918	8.748
734.293	1.982
737.667	7.317
741.042	11.062
744.417	3.682
747.792	4.425
751.167	11.202
754.542	16.161
757.916	3.589
761.291	12.829
764.666	4.124
768.041	6.987
771.416	3.272
774.791	8.022
778.165	2.314
781.54	6.592
784.915	13.293
788.29	7.686
791.665	5.025
795.039	6.957
798.414	8.743
801.789	13.991
805.164	8.011
808.539	5.681
811.914	3.177
815.288	7.128
818.663	10.917
822.038	26.751
825.413	15.487
828.787	18.459
832.162	32.926
835.537	31.431
838.912	7.639
842.287	25.465
845.662	23.272
849.036	21.533
852.411	30.514
855.786	9.894
859.161	26.496
862.536	26.101
865.911	25.656
869.285	20.348
872.66	19.638
876.035	11.241
879.41	2.549
882.784	2.704
886.159	25.293
889.534	51.84
892.909	52.263
896.284	113.28
899.659	131.784
903.033	186.841
906.408	212.488
909.783	245.518
913.158	304.3
916.533	328.641
919.907	376.037
923.282	460.429
926.657	579.148
930.032	693.309
933.407	886.011
936.782	1049.38
940.156	1174.06
943.531	1277.91
946.906	1287.52
950.281	1343.21
953.656	1479.6
957.031	1549.23
960.405	1685.5
963.78	1779.5
967.155	1834.23
970.53	1840.24
973.904	1758.16
977.279	1623.59
980.654	1346.72
984.029	1119.97
987.404	914.406
990.779	775.967
994.153	674.713
997.528	574.141
1000.9	515.874
1004.28	436.798
1007.65	373.865
1011.03	359.251
1014.4	345.981
1017.78	319.479
1021.15	325.479
1024.53	333.556
1027.9	355.695
1031.28	398.826
1034.65	467.429
1038.03	547.623
1041.4	650.534
1044.78	701.968
1048.15	717.571
1051.53	698.06
1054.9	751.398
1058.28	735.301
1061.65	716.25
1065.03	724.33
1068.4	732.011
1071.77	694.187
1075.15	713.847
1078.52	682.14
1081.9	704.742
1085.27	748.446
1088.65	761.195
1092.02	751.912
1095.4	771.7
1098.77	741.914
1102.15	726.786
1105.52	744.801
1108.9	710.892
1112.27	764.02
1115.65	792.372
1119.02	805.592
1122.4	845.475
1125.77	835.617
1129.15	848.335
1132.52	817.708
1135.9	763.443
1139.27	690.192
1142.64	597.799
1146.02	489.926
1149.39	332.078
1152.77	257.705
1156.14	126.058
1159.52	70.148
1162.89	34.245
1166.27	6.507
1169.64	21.921
1173.02	32.851
1176.39	44.535
1179.77	32.616
1183.14	35.727
1186.52	31.715
1189.89	16.831
1193.27	37.171
1196.64	28.794
1200.02	34.36
1203.39	16.834
1206.77	10.652
1210.14	15.333
1213.52	3.514
1216.89	8.952
1220.27	10.453
1223.64	12.439
1227.02	19.398
1230.39	3.918
1233.77	6.745
1237.14	3.378
1240.52	1.505
1243.89	0.066
1247.26	5.177
1250.64	0.309
1254.01	3.855
1257.39	4.381
1260.76	0.248
1264.14	11.533
1267.51	13.239
1270.89	5.481
1274.26	18.682
1277.64	15.144
1281.01	3.333
1284.39	20.031
1287.76	6.788
1291.14	11.58
1294.51	4.095
