Measurement: Raman, 785 nm, unoriented, Raman Data Processed
Mineral: Varulite
Rruff sample: R060740
Ideal chemistry: NaCaMn^2+^_3_(PO_4_)_3_
Locality: Kaatiala, Finland
Source: Michael Scott
Description: Brown massive
Raman shift (cm-1)	intensity
149.49	0
152.383	57.7244
155.276	51.5435
158.169	34.6058
161.061	17.6462
163.954	46.9126
166.847	62.7782
169.739	109.049
172.632	85.1769
175.525	65.9878
178.417	21.744
181.31	7.3244
184.203	1.23743
187.096	3.2533
189.988	0.596985
192.881	20.1055
195.774	36.9196
198.666	6.22199
201.559	38.3928
204.452	53.9573
207.344	104.566
210.237	95.0011
213.13	99.2335
216.023	135.232
218.915	187.741
221.808	175.583
224.701	212.029
227.593	233.048
230.486	240.791
233.379	250.688
236.271	275.245
239.164	299.075
242.057	324.11
244.95	327.402
247.842	302.959
250.735	277
253.628	257.471
256.52	246.814
259.413	231.968
262.306	205.694
265.198	231.583
268.091	185.587
270.984	152.134
273.877	138.511
276.769	143.204
279.662	127.514
282.555	106.522
285.447	89.5678
288.34	64.8641
291.233	39.1149
294.125	38.0632
297.018	27.1169
299.911	31.3694
302.804	39.7125
305.696	30.6143
308.589	40.9664
311.482	35.1653
314.374	12.6254
317.267	19.8217
320.16	9.24512
323.052	15.5795
325.945	59.2238
328.838	88.9811
331.731	126.341
334.623	152.889
337.516	192.288
340.409	229.733
343.302	237.985
346.194	244.008
349.087	242.173
351.98	212.838
354.872	147.496
357.765	125.729
360.658	63.367
363.55	9.59772
366.443	12.9763
369.336	1.87805
372.228	3.42481
375.121	11.2346
378.014	11.9723
380.907	6.62506
383.799	12.4296
386.692	1.52087
389.585	2.12885
392.477	24.8834
395.37	18.8647
398.263	42.8746
401.155	46.4576
404.048	60.169
406.941	67.9849
409.834	93.1799
412.726	112.529
415.619	117.405
418.512	130.221
421.404	158.418
424.297	176.216
427.19	216.344
430.082	196.956
432.975	220.172
435.868	205.751
438.761	202.116
441.653	195.122
444.546	175.17
447.439	195.168
450.331	216.449
453.224	201.927
456.117	244.57
459.009	250.336
461.902	270.752
464.795	261.223
467.688	246.687
470.58	224.982
473.473	185.213
476.366	181.272
479.258	189.54
482.151	158.116
485.044	149.203
487.936	144.864
490.829	125.231
493.722	102.134
496.615	91.7012
499.507	69.6749
502.4	60.0257
505.293	46.9058
508.185	26.432
511.078	21.1135
513.971	4.35889
516.864	2.24982
519.756	0.752869
522.649	2.29877
525.542	12.4693
528.434	3.48749
531.327	1.263
534.22	16.2812
537.112	4.08099
540.005	15.5695
542.898	35.5848
545.791	68.5981
548.683	81.5468
551.576	119
554.469	141.522
557.361	144.072
560.254	141.135
563.147	162.632
566.039	184.254
568.932	167.645
571.825	236.94
574.718	260.054
577.61	308.389
580.503	354.191
583.396	398.406
586.288	451.773
589.181	516.598
592.074	557.62
594.966	584.71
597.859	606.147
600.752	564.091
603.644	520.888
606.537	484.726
609.43	433.557
612.323	368.387
615.215	290.235
618.108	218.523
621.001	169.241
623.893	113.861
626.786	105.96
629.679	99.1323
632.571	68.3848
635.464	55.7347
638.357	69.4947
641.25	51.5996
644.142	62.9738
647.035	85.6513
649.928	56.2833
652.82	56.896
655.713	44.6794
658.606	38.2805
661.498	28.2684
664.391	15.9786
667.284	9.59625
670.177	0.492004
673.069	5.55029
675.962	5.57343
678.855	12.5535
681.747	15.3744
684.64	7.09094
687.533	8.53967
690.425	1.28192
693.318	0.82196
696.211	7.57507
699.104	6.64356
701.996	9.54321
704.889	0.946899
707.782	11.0255
710.674	11.1122
713.567	11.9008
716.46	36.4844
719.352	31.122
722.245	22.9383
725.138	26.1799
728.031	18.0987
730.923	29.4779
733.816	33.2807
736.709	4.21268
739.601	7.43594
742.494	6.59317
745.387	23.6814
748.279	23.0395
751.172	29.6784
754.065	31.7381
756.958	33.7049
759.85	38.9615
762.743	33.5983
765.636	19.2084
768.528	14.7918
771.421	14.4317
774.314	25.9692
777.206	12.6785
780.099	16.7408
782.992	12.3585
785.885	19.1091
788.777	12.7129
791.67	34.4504
794.563	22.944
797.455	10.7444
800.348	4.14087
803.241	3.47028
806.133	6.15454
809.026	36.8397
811.919	12.461
814.812	10.6301
817.704	22.2883
820.597	20.9412
823.49	18.1775
826.382	11.6009
829.275	20.3995
832.168	16.1385
835.06	24.6173
837.953	38.5674
840.846	19.274
843.739	22.6716
846.631	5.83942
849.524	20.7156
852.417	12.2817
855.309	12.1613
858.202	7.86816
861.095	0.97876
863.987	5.67358
866.88	16.7318
869.773	12.3474
872.666	10.3911
875.558	1.24329
878.451	8.75305
881.344	28.4048
884.237	3.78912
887.129	16.5541
890.022	17.3223
892.915	12.3681
895.807	4.92718
898.7	7.27747
901.593	22.9133
904.485	26.8959
907.378	32.7963
910.271	44.0874
913.164	53.8541
916.056	28.7192
918.949	67.6883
921.842	82.9729
924.734	82.4289
927.627	113.769
930.52	146.76
933.412	191.813
936.305	277.434
939.198	336.537
942.091	358.835
944.983	381.235
947.876	419.165
950.769	466.727
953.661	563.219
956.554	639.345
959.447	680.97
962.339	763.025
965.232	825.589
968.125	847.121
971.018	813.502
973.91	799.874
976.803	740.209
979.696	570.588
982.588	456.626
985.481	335.537
988.374	257.467
991.266	196.261
994.159	110.091
997.052	106.408
999.945	83.7372
1002.84	59.2514
1005.73	38.8336
1008.62	40.182
1011.51	14.8141
1014.41	14.0613
1017.3	10.1146
1020.19	21.1333
1023.09	8.94116
1025.98	12.1417
1028.87	16.9722
1031.76	68.8174
1034.66	52.6153
1037.55	100.551
1040.44	98.6713
1043.34	128.425
1046.23	146.706
1049.12	166.042
1052.01	170.48
1054.91	205.72
1057.8	235.909
1060.69	256.23
1063.58	290.249
1066.48	268.257
1069.37	276.927
1072.26	284.495
1075.15	290.364
1078.05	257.618
1080.94	244.53
1083.83	262.196
1086.73	235.03
1089.62	245.389
1092.51	232.789
1095.4	218.005
1098.3	214.887
1101.19	200.534
1104.08	187.326
1106.97	184.318
1109.87	194.21
1112.76	188.968
1115.65	202.437
1118.55	208.49
1121.44	185.043
1124.33	239.878
1127.22	173.009
1130.12	154.729
1133.01	169.182
1135.9	165.597
1138.79	179.555
1141.69	149.193
1144.58	122.773
1147.47	84.2311
1150.37	83.7509
1153.26	54.6887
1156.15	17.0961
1159.04	3.14819
1161.94	14.5201
1164.83	16.0822
1167.72	9.39795
1170.61	0.413452
1173.51	9.0947
1176.4	7.75845
1179.29	5.90469
1182.18	0.266937
1185.08	5.01794
1187.97	12.4791
1190.86	25.292
1193.76	20.0966
1196.65	3.3031
1199.54	10.3393
1202.43	8.63699
1205.33	17.0625
1208.22	4.32733
1211.11	35.5384
1214	24.1096
1216.9	61.1348
1219.79	37.0984
1222.68	38.1915
1225.58	29.8988
1228.47	33.0431
1231.36	42.5249
1234.25	6.82474
1237.15	8.93076
1240.04	13.4046
1242.93	10.8895
1245.82	30.7307
1248.72	17.7687
1251.61	10.7136
1254.5	18.2301
1257.39	31.9693
1260.29	12.1173
1263.18	1.42084
1266.07	19.3935
1268.97	2.33075
