Measurement: Raman, 780 nm, unoriented, Raman Data Processed
Mineral: Vauquelinite
Rruff sample: R060676
Ideal chemistry: Cu^2+^Pb_2_(CrO_4_)(PO_4_)(OH)
Locality: Beresovsk, near Ekaterinburg, Ural Mountains, Russia
Source: Michael Scott
Description: Black wedge-shaped crystals, dark-green in thin crystal fragments, associated with yellowish-brown fine-grains and darker reddish-orange prismatic crocoite.
Measured chemistry: Cu^+2^Pb_2.09_(Cr_1.04_O_4_)((P_0.66_As_0.28_)_Î£=0.94_O_4_)(OH) ;  (Note: Oxygen number adjusted to compensate for low analytical total)
Raman shift (cm-1)	intensity
166.814	0
169.706	0.796768
172.599	0.116787
175.492	2.28367
178.385	2.28056
181.277	1.9833
184.17	0.106133
187.063	0.508236
189.955	3.39506
192.848	3.94915
195.741	3.88334
198.633	2.75531
201.526	1.35147
204.419	4.03223
207.311	4.49233
210.204	4.23407
213.097	4.82151
215.99	3.86554
218.882	4.78097
221.775	3.64024
224.668	5.21826
227.56	0.362267
230.453	0.830399
233.346	1.7993
236.238	4.73345
239.131	4.53464
242.024	4.80122
244.917	3.77304
247.809	0.777493
250.702	1.76801
253.595	2.60688
256.487	4.35415
259.38	0.223171
262.273	0.257793
265.166	1.74957
268.058	1.29975
270.951	2.08652
273.844	1.21275
276.736	2.45785
279.629	0.097588
282.522	0.884983
285.414	0.989098
288.307	2.55279
291.2	0.914234
294.092	3.15542
296.985	0.377232
299.878	1.01298
302.771	5.15074
305.663	4.27238
308.556	5.52007
311.449	3.66836
314.341	7.43619
317.234	12.5927
320.127	14.4082
323.019	17.7517
325.912	22.9906
328.805	28.5372
331.698	38.7462
334.59	42.3197
337.483	57.5329
340.376	67.2895
343.268	75.4696
346.161	72.6138
349.054	78.4856
351.947	64.21
354.839	52.4588
357.732	36.5569
360.625	25.8005
363.517	17.1343
366.41	17.5321
369.303	21.3498
372.195	21.4359
375.088	26.0032
377.981	27.5059
380.873	29.6983
383.766	21.8815
386.659	20.5431
389.552	12.8169
392.444	8.80894
395.337	6.63661
398.23	2.20145
401.122	5.93569
404.015	4.32424
406.908	2.68098
409.8	0.864315
412.693	3.20956
415.586	1.16048
418.479	0.771439
421.371	0.903866
424.264	1.33278
427.157	1.00757
430.049	0.681808
432.942	1.85905
435.835	0.366249
438.728	0.349636
441.62	5.26611
444.513	2.58289
447.406	3.01379
450.298	2.2395
453.191	6.20816
456.084	4.33437
458.976	4.30947
461.869	2.05734
464.762	3.10874
467.654	2.05887
470.547	2.69317
473.44	0.877325
476.333	4.09471
479.225	0.967041
482.118	1.36301
485.011	1.99413
487.903	1.23409
490.796	0.248474
493.689	4.24806
496.582	1.9553
499.474	0.337797
502.367	2.45295
505.26	1.72104
508.152	4.84165
511.045	2.22128
513.938	2.48022
516.83	5.35429
519.723	2.24157
522.616	1.68748
525.509	2.99013
528.401	0.086279
531.294	0.922503
534.187	6.17175
537.079	7.36345
539.972	2.53502
542.865	2.92804
545.757	1.1713
548.65	0.353334
551.543	1.39827
554.436	2.90229
557.328	5.39708
560.221	2.96167
563.114	3.80043
566.006	2.1796
568.899	1.19671
571.792	2.01897
574.684	4.76183
577.577	1.75382
580.47	4.2959
583.362	4.15341
586.255	0.032213
589.148	0.207067
592.041	2.29357
594.933	2.22432
597.826	3.34732
600.719	1.95648
603.611	4.95566
606.504	0.388151
609.397	1.29454
612.29	4.80523
615.182	3.52365
618.075	3.59252
620.968	2.77762
623.86	3.6788
626.753	4.39019
629.646	3.89227
632.538	1.83694
635.431	2.61302
638.324	5.41768
641.217	1.5888
644.109	4.14975
647.002	1.56155
649.895	2.3578
652.787	8.10952
655.68	3.22979
658.573	0.402874
661.466	2.52558
664.358	4.41376
667.251	3.18892
670.144	2.74535
673.036	3.69706
675.929	3.48962
678.822	1.1075
681.714	1.38123
684.607	2.80232
687.5	4.44963
690.393	4.88244
693.285	5.47175
696.178	0.168457
699.071	4.50287
701.963	4.2127
704.856	3.02294
707.749	2.51541
710.641	4.90453
713.534	2.99616
716.427	7.41951
719.319	1.85623
722.212	4.36597
725.105	4.26323
727.998	4.44003
730.89	3.05304
733.783	1.15297
736.676	2.93111
739.568	2.15013
742.461	1.36873
745.354	0.023108
748.246	0.244762
751.139	1.35405
754.032	0.138821
756.925	4.77909
759.817	2.1542
762.71	1.30441
765.603	1.96804
768.495	3.12919
771.388	0.848198
774.281	2.25008
777.173	4.52492
780.066	9.89758
782.959	9.66729
785.852	13.4503
788.744	15.0456
791.637	20.3357
794.53	21.9132
797.422	27.6628
800.315	30.9775
803.208	40.7667
806.101	49.8803
808.993	67.3448
811.886	89.1315
814.779	113.832
817.671	142.58
820.564	169.39
823.457	176.319
826.349	161.759
829.242	134.046
832.135	111.657
835.028	92.2634
837.92	70.6899
840.813	57.1662
843.706	45.181
846.598	38.6442
849.491	34.6065
852.384	30.2984
855.276	25.9179
858.169	27.3942
861.062	25.3393
863.955	25.2852
866.847	29.786
869.74	24.2937
872.633	24.2493
875.525	18.2885
878.418	13.6948
881.311	8.11253
884.203	7.05481
887.096	0.868069
889.989	1.49727
892.881	0.809242
895.774	2.24463
898.667	0.903513
901.56	0.910002
904.452	0.064579
907.345	0.965605
910.238	0.669283
913.13	1.89916
916.023	0.486534
918.916	0.409609
921.808	4.22578
924.701	3.89337
927.594	2.83292
930.487	4.79532
933.379	2.91526
936.272	5.33289
939.165	8.5616
942.057	6.86753
944.95	6.07226
947.843	5.44581
950.736	6.27234
953.628	2.96691
956.521	2.32224
959.414	5.55292
962.306	2.44556
965.199	1.10676
968.092	1.68072
970.984	0.216784
973.877	3.26405
976.77	2.51021
979.663	2.21835
982.555	2.06502
985.448	2.04399
988.341	1.62884
991.233	4.17079
994.126	2.27613
997.019	0.816434
999.911	4.11323
1002.8	1.07744
1005.7	2.69061
1008.59	1.37206
1011.48	0.211018
1014.38	3.96274
1017.27	3.49299
1020.16	1.92077
1023.05	1.14156
1025.95	4.28321
1028.84	5.34427
1031.73	4.13924
1034.62	1.9552
1037.52	2.10914
1040.41	1.008
1043.3	2.16756
1046.19	0.478807
1049.09	2.41195
1051.98	6.12391
1054.87	2.2418
1057.77	3.36538
1060.66	0.719501
1063.55	4.94392
1066.44	3.70166
1069.34	2.26265
1072.23	4.88899
1075.12	1.39809
1078.01	1.24047
1080.91	3.6232
1083.8	0.468771
1086.69	2.93981
1089.59	2.67642
1092.48	0.099039
1095.37	3.95819
1098.26	0.264368
1101.16	2.84466
1104.05	0.58189
1106.94	1.52645
1109.83	0.056616
1112.73	1.15629
1115.62	1.90732
1118.51	0.527967
1121.4	3.50393
1124.3	1.63075
1127.19	6.8138
1130.08	5.68286
1132.98	1.90494
1135.87	1.43715
1138.76	4.42535
1141.65	3.73399
1144.55	3.40449
1147.44	1.8739
1150.33	3.03409
1153.22	0.070673
1156.12	3.58066
1159.01	3.27374
1161.9	3.38351
1164.8	1.54243
1167.69	2.95749
1170.58	0.455993
1173.47	5.44585
1176.37	0.24795
1179.26	1.95448
1182.15	4.19985
1185.04	5.13341
1187.94	3.11131
1190.83	4.81611
1193.72	3.26393
1196.62	4.98157
1199.51	4.86332
1202.4	4.07354
1205.29	5.83343
1208.19	4.11801
1211.08	3.06338
1213.97	3.14584
1216.86	1.82583
1219.76	6.49657
1222.65	1.07278
1225.54	2.95741
1228.43	5.82447
1231.33	2.99449
1234.22	2.83046
1237.11	0.744256
1240.01	3.02601
1242.9	2.96145
1245.79	0.467993
1248.68	6.96143
1251.58	3.91489
1254.47	4.28735
1257.36	3.69854
1260.25	5.38122
1263.15	3.33544
1266.04	4.33453
1268.93	5.47645
1271.83	3.16551
1274.72	1.56017
1277.61	0.776542
1280.5	4.96457
1283.4	2.35468
