Measurement: Raman, 532 nm, unoriented, Raman Data Processed
Mineral: Vauquelinite
Rruff sample: R060926
Ideal chemistry: Cu^2+^Pb_2_(CrO_4_)(PO_4_)(OH)
Locality: Hardshell mine, Patagonia, Arizona, USA
Source: Bob Jenkins
Description: Apple-green tabular crystals
Raman shift (cm-1)	intensity
117.666	0
121.041	239.459
124.416	342.893
127.79	412.906
131.165	521.232
134.54	800.313
137.915	904.958
141.29	851.996
144.665	706.582
148.039	561.218
151.414	483.856
154.789	385.367
158.164	379.155
161.539	299.263
164.913	240.214
168.288	171.434
171.663	127.541
175.038	55.2998
178.413	5.83545
181.788	24.7642
185.162	19.2041
188.537	21.0117
191.912	7.59912
195.287	0.102051
198.662	32.3918
202.036	67.3003
205.411	90.4853
208.786	80.0579
212.161	67.5413
215.536	112.274
218.911	72.8016
222.285	74.4559
225.66	63.5071
229.035	88.514
232.41	91.7944
235.785	40.0411
239.159	42.8645
242.534	15.2427
245.909	39.8826
249.284	20.265
252.659	16.8591
256.033	12.0365
259.408	9.41248
262.783	1.81079
266.158	22.7357
269.533	72.1398
272.908	24.4448
276.282	63.6658
279.657	27.2627
283.032	23.2317
286.407	25.5601
289.782	153.158
293.156	235.259
296.531	373.277
299.906	505.391
303.281	651.019
306.656	750.256
310.031	861.125
313.405	1141.72
316.78	1641.97
320.155	2688.62
323.53	4580.61
326.904	6938.44
330.279	9284.49
333.654	10531.2
337.029	10055.6
340.404	9518.5
343.779	10278.8
347.153	12255.2
350.528	14139.2
353.903	13481.8
357.278	10173.9
360.653	6869.31
364.027	5231.76
367.402	5072.07
370.777	6142.73
374.152	7574.87
377.527	8796.44
380.902	8664.47
384.276	6613.27
387.651	3851.95
391.026	2156.57
394.401	1273.03
397.776	835.432
401.151	615.672
404.525	566.15
407.9	551.064
411.275	495.649
414.65	349.752
418.024	238.362
421.399	91.1382
424.774	33.7219
428.149	61.8101
431.524	60.6558
434.899	84.4356
438.273	44.3005
441.648	3.86572
445.023	90.241
448.398	185.34
451.773	294.067
455.147	374.028
458.522	435.746
461.897	460.654
465.272	363.317
468.647	276.961
472.022	166.7
475.396	94.6231
478.771	57.9169
482.146	19.5703
485.521	28.0776
488.896	45.114
492.27	37.3903
495.645	37.818
499.02	6.85693
502.395	2.52039
505.77	4.26111
509.144	64.1771
512.519	61.4633
515.894	93.3572
519.269	63.7052
522.644	86.0331
526.019	107.819
529.393	106.263
532.768	144.722
536.143	116.584
539.518	96.4479
542.893	111.212
546.268	84.7527
549.642	47.863
553.017	44.661
556.392	5.43933
559.767	9.03491
563.141	18.1887
566.516	5.49194
569.891	3.61072
573.266	27.9615
576.641	6.23377
580.016	55.6195
583.39	33.0806
586.765	51.4427
590.14	49.0557
593.515	99.8147
596.89	123.567
600.264	128.061
603.639	146.02
607.014	167.399
610.389	194.368
613.764	224.011
617.139	261.595
620.513	313.08
623.888	315.424
627.263	376.222
630.638	370.536
634.013	434.083
637.387	457.92
640.762	498.421
644.137	558.481
647.512	651.163
650.887	700.105
654.261	749.715
657.636	797.379
661.011	872.434
664.386	877.115
667.761	901.072
671.135	952.733
674.51	960.96
677.885	1003.08
681.26	1066.26
684.635	1116.3
688.01	1152.93
691.384	1212.51
694.759	1226.61
698.134	1197.57
701.509	1149.71
704.884	1018.46
708.259	946.845
711.633	815.924
715.008	703.85
718.383	563.088
721.758	451.664
725.133	296.07
728.507	190.991
731.882	56.7563
735.257	18.7075
738.632	116.358
742.007	212.411
745.381	271.698
748.756	275.844
752.131	386.218
755.506	296.596
758.881	194.478
762.255	20.7637
765.63	416.287
769.005	985.581
772.38	1730.79
775.755	2584.46
779.13	3654.75
782.504	4831.75
785.879	6123.01
789.254	7475.15
792.629	9045.65
796.004	10993.5
799.378	13437.5
802.753	17079.2
806.128	22643.8
809.503	30731.7
812.878	41554.4
816.253	54463.5
819.627	67351.1
823.002	76589.2
826.377	77605.7
829.752	70628.5
833.127	58190
836.501	45789.5
839.876	35854.4
843.251	28852.3
846.626	23767.6
850.001	19894.2
853.375	17024.8
856.75	15101.8
860.125	14095.8
863.5	13978.4
866.875	14311.5
870.25	14911.9
873.624	15584.6
876.999	15798.8
880.374	14840.2
883.749	12396
887.124	9702.71
890.498	7339.57
893.873	5692.26
897.248	4035.85
900.623	2486.68
903.998	1291.57
907.372	438.599
910.747	127.663
914.122	415.11
917.497	556.423
920.872	566.922
924.246	384.356
927.621	69.0098
930.996	173.569
934.371	277.424
937.746	329.125
941.121	163.16
944.495	102.962
947.87	83.5674
951.245	195.445
954.62	322.194
957.995	496.617
961.37	665.364
964.744	818.072
968.119	889.793
971.494	973.978
974.869	963.23
978.244	961.65
981.618	931.517
984.993	893.987
988.368	923.253
991.743	1007.37
995.118	1054.61
998.492	1040.03
1001.87	994.955
1005.24	916.117
1008.62	814.911
1011.99	750.538
1015.37	693.425
1018.74	605.037
1022.12	581.369
1025.49	593.477
1028.87	542.658
1032.24	538.865
1035.62	507.019
1038.99	483.477
1042.37	499.423
1045.74	496.223
1049.12	473.738
1052.49	398.712
1055.86	408.933
1059.24	389.665
1062.61	315.177
1065.99	258.216
1069.36	210.84
1072.74	168.698
1076.11	147.046
1079.49	100.226
1082.86	51.3036
1086.24	101.611
1089.61	57.9874
1092.99	10.3044
1096.36	0.335693
1099.74	10.7033
1103.11	11.1265
1106.49	20.1615
1109.86	2.91455
1113.24	15.7639
1116.61	26.2477
1119.99	11.5443
1123.36	2.69739
1126.73	20.5867
1130.11	11.7274
1133.48	15.5881
1136.86	13.9225
1140.23	7.00708
1143.61	2.18884
1146.98	11.4706
1150.36	18.7919
1153.73	37.7595
1157.11	69.6775
1160.48	56.0557
1163.86	76.9703
1167.23	107.331
1170.61	100.897
1173.98	108.702
1177.36	118.161
1180.73	92.5065
1184.11	86.9504
1187.48	82.2306
1190.86	82.3897
1194.23	66.9054
1197.61	62.0192
1200.98	39.8729
1204.36	23.699
1207.73	43.1935
1211.11	14.4248
1214.48	24.9638
1217.86	34.4775
1221.23	9.927
1224.61	17.2971
1227.98	2.17725
1231.36	23.6864
1234.73	23.1697
1238.1	14.0282
1241.48	27.7096
1244.85	23.3259
1248.23	48.2355
1251.6	50.6052
1254.98	26.7653
1258.35	54.1069
1261.73	21.4236
1265.1	36.5848
1268.48	50.27
1271.85	30.1154
1275.23	55.3124
1278.6	26.1918
1281.98	51.9758
1285.35	36.0384
1288.73	44.8595
1292.1	21.1311
1295.48	9.92432
