Measurement: Raman, 532 nm, unoriented, Raman Data Processed
Mineral: Vauquelinite
Rruff sample: R060676
Ideal chemistry: Cu^2+^Pb_2_(CrO_4_)(PO_4_)(OH)
Locality: Beresovsk, near Ekaterinburg, Ural Mountains, Russia
Source: Michael Scott
Description: Black wedge-shaped crystals, dark-green in thin crystal fragments, associated with yellowish-brown fine-grains and darker reddish-orange prismatic crocoite.
Measured chemistry: Cu^+2^Pb_2.09_(Cr_1.04_O_4_)((P_0.66_As_0.28_)_Î£=0.94_O_4_)(OH) ;  (Note: Oxygen number adjusted to compensate for low analytical total)
Raman shift (cm-1)	intensity
178.72	0
181.612	1.90367
184.505	3.21063
187.398	2.25725
190.29	4.08614
193.183	4.95908
196.076	5.15279
198.968	10.1919
201.861	5.4817
204.754	12.789
207.647	11.6282
210.539	7.3224
213.432	7.96518
216.325	10.5739
219.217	7.82948
222.11	11.5326
225.003	8.61172
227.895	6.05159
230.788	9.56325
233.681	8.91322
236.573	9.50983
239.466	7.8941
242.359	9.1922
245.252	5.45555
248.144	7.94392
251.037	3.69644
253.93	4.51527
256.822	5.1763
259.715	4.21507
262.608	6.11269
265.5	0.935669
268.393	2.84357
271.286	2.60313
274.179	1.91449
277.071	3.41301
279.964	0.815338
282.857	2.12166
285.75	1.98225
288.642	0.26033
291.535	0.378876
294.428	0.345444
297.32	0.589478
300.213	4.40318
303.106	9.96112
305.998	12.6649
308.891	19.4142
311.784	27.9797
314.676	37.9915
317.569	54.2343
320.462	63.219
323.355	77.6012
326.247	86.8358
329.14	94.4949
332.033	102.352
334.925	112.412
337.818	123.478
340.711	128.767
343.603	113.482
346.496	92.8245
349.389	69.6869
352.281	48.0965
355.174	29.2487
358.067	21.1815
360.96	19.1739
363.852	11.9109
366.745	14.4924
369.638	19.7399
372.53	24.4192
375.423	27.4323
378.316	32.3308
381.209	34.5538
384.101	29.945
386.994	21.2458
389.887	12.9385
392.779	5.1841
395.672	3.52116
398.565	2.94948
401.457	3.34209
404.35	3.86868
407.243	1.51259
410.135	3.78421
413.028	5.00993
415.921	1.14986
418.814	0.991531
421.706	1.01627
424.599	0.153061
427.492	0.712997
430.384	2.10263
433.277	1.60361
436.17	0.109512
439.062	1.87846
441.955	4.2131
444.848	2.43349
447.741	4.21672
450.633	3.68828
453.526	6.7258
456.419	6.4093
459.311	4.99544
462.204	3.71555
465.097	4.97462
467.99	3.12749
470.882	4.87129
473.775	0.010376
476.668	3.41301
479.56	0.182465
482.453	3.59314
485.346	1.63022
488.238	0.53064
491.131	0.060364
494.024	2.16548
496.916	0.438339
499.809	1.20349
502.702	0.014587
505.595	1.75627
508.487	1.94318
511.38	1.08759
514.273	1.43843
517.165	2.10191
520.058	1.32896
522.951	1.74829
525.844	1.13052
528.736	1.58664
531.629	0.662857
534.522	2.33435
537.414	5.8414
540.307	1.37001
543.2	3.86813
546.092	1.69334
548.985	1.37347
551.878	0.957138
554.771	0.73291
557.663	2.89774
560.556	0.356812
563.449	1.37651
566.341	3.18539
569.234	2.44133
572.127	0.144897
575.019	2.4192
577.912	2.82539
580.805	2.6796
583.697	2.60936
586.59	1.20288
589.483	2.12344
592.376	2.62131
595.268	3.53477
598.161	1.73821
601.054	2.48265
603.946	2.35054
606.839	3.76935
609.732	3.08479
612.625	1.05183
615.517	0.232178
618.41	3.26808
621.303	3.34146
624.195	2.71544
627.088	0.17067
629.981	1.76051
632.873	1.50549
635.766	5.90166
638.659	2.38705
641.552	1.11215
644.444	3.30165
647.337	4.76938
650.23	2.3974
653.122	5.87268
656.015	5.43405
658.908	4.73093
661.8	6.07437
664.693	3.96011
667.586	7.52602
670.479	6.24672
673.371	5.27614
676.264	6.39337
679.157	3.5284
682.049	4.96858
684.942	7.28155
687.835	4.73737
690.727	5.53531
693.62	8.3286
696.513	5.65894
699.405	4.94405
702.298	4.38522
705.191	5.62019
708.084	6.25613
710.976	2.93216
713.869	5.83582
716.762	2.60792
719.654	4.95877
722.547	2.17468
725.44	2.14146
728.332	3.44591
731.225	3.29642
734.118	0.565338
737.011	0.974197
739.903	1.92697
742.796	1.39314
745.689	2.11229
748.581	3.27725
751.474	3.16145
754.367	0.724869
757.26	0.70665
760.152	0.656693
763.045	2.74008
765.938	4.63338
768.83	8.49309
771.723	10.7815
774.616	16.233
777.508	25.7205
780.401	35.97
783.294	50.9238
786.187	64.1072
789.079	73.2268
791.972	82.0787
794.865	84.2047
797.757	84.7466
800.65	85.3757
803.543	95.6854
806.435	116.815
809.328	159.72
812.221	216.05
815.114	303.628
818.006	408.832
820.899	515.105
823.792	587.816
826.684	571.882
829.577	482.99
832.47	375.304
835.362	276.276
838.255	205.028
841.148	155.132
844.04	115.243
846.933	94.0729
849.826	79.6753
852.719	73.8623
855.611	78.2798
858.504	91.4864
861.397	106.004
864.289	130.847
867.182	155.773
870.075	184.751
872.967	196.327
875.86	163.261
878.753	109.793
881.646	62.0273
884.538	34.5212
887.431	19.5504
890.324	13.8417
893.216	3.42835
896.109	5.21524
899.002	6.19064
901.894	7.13907
904.787	2.75284
907.68	0.08844
910.573	1.35111
913.465	4.31107
916.358	3.36056
919.251	2.75401
922.143	0.046295
925.036	0.893616
927.929	1.94531
930.822	3.99902
933.714	7.19543
936.607	11.4071
939.5	14.661
942.392	15.5711
945.285	12.4278
948.178	7.49116
951.07	8.59332
953.963	5.60933
956.856	6.40845
959.749	2.65472
962.641	5.08144
965.534	6.4164
968.427	8.93666
971.319	4.42702
974.212	1.01399
977.105	0.857483
979.997	2.33937
982.89	3.65579
985.783	0.753464
988.676	4.03772
991.568	2.11984
994.461	4.62441
997.354	1.97327
1000.25	2.76694
1003.14	2.4378
1006.03	2.04503
1008.92	4.41458
1011.82	0.763443
1014.71	1.61192
1017.6	2.51241
1020.5	3.42714
1023.39	3.86743
1026.28	4.06575
1029.17	3.56451
1032.07	2.43526
1034.96	6.63002
1037.85	5.23033
1040.74	5.57587
1043.64	4.30985
1046.53	4.82904
1049.42	4.29265
1052.32	3.49089
1055.21	5.15457
1058.1	6.2301
1060.99	5.11357
1063.89	7.03481
1066.78	3.26091
1069.67	5.08365
1072.56	0.079575
1075.46	2.16817
1078.35	2.6442
1081.24	0.047882
1084.13	2.63757
1087.03	0.718201
1089.92	0.664169
1092.81	1.15912
1095.7	0.196014
1098.6	3.30987
1101.49	0.858292
1104.38	1.74408
1107.28	3.87231
1110.17	2.39705
1113.06	2.86494
1115.95	0.607727
1118.85	1.5907
1121.74	1.3358
1124.63	1.16338
1127.53	0.879684
1130.42	0.480545
1133.31	3.1165
1136.2	2.37534
1139.1	4.49901
1141.99	1.40793
1144.88	2.72282
1147.77	2.06989
1150.67	0.334991
1153.56	1.95383
1156.45	4.32108
1159.35	1.14185
1162.24	0.65625
1165.13	0.733337
1168.02	3.12189
1170.92	2.08872
1173.81	3.8573
1176.7	2.78781
1179.59	4.50452
1182.49	2.6633
1185.38	1.3176
1188.27	2.85111
1191.16	2.15451
1194.06	4.60434
1196.95	3.42041
1199.84	4.9888
1202.73	4.07135
1205.63	4.77032
1208.52	3.22885
1211.41	4.12836
1214.31	4.54971
1217.2	3.70816
1220.09	3.91589
1222.98	4.67789
1225.88	1.68875
1228.77	2.05393
1231.66	0.190948
1234.56	2.43152
1237.45	0.181335
1240.34	0.503021
1243.23	2.85971
1246.13	5.24054
1249.02	1.70371
1251.91	0.630676
1254.8	0.796356
1257.7	1.30432
1260.59	4.19504
1263.48	0.214752
1266.38	2.28845
1269.27	3.85318
1272.16	3.21002
1275.05	0.254608
1277.95	3.00665
1280.84	1.44153
1283.73	1.79218
1286.62	4.92453
1289.52	2.19531
1292.41	0.060242
1295.3	2.36182
1298.19	2.76523
1301.09	1.46381
