Measurement: Raman, 785 nm, unoriented, Raman Data Processed
Mineral: Vauxite
Rruff sample: R070421
Ideal chemistry: Fe^2+^Al_2_(PO_4_)_2_(OH)_2_6H_2_O
Locality: Llallagua, Bustillos Province, Potosi, Bolivia
Source: James Shigley
Description: Aggregates of pale blue tabular crystals
Measured chemistry: (Fe^2+^_0.98_Mn_0.02_)_Σ=1_Al_2.00_(P_1.00_O_4_)_2_(OH)_2_·5.7H_2_O; OH estimated by charge balance; H_2_O  by difference
Raman shift (cm-1)	intensity
167.312	0
170.205	294.548
173.098	687.083
175.99	1106.11
178.883	1248.49
181.776	1157.22
184.669	841.033
187.561	391.836
190.454	144.092
193.347	37.4048
196.239	3.26856
199.132	15.0649
202.025	122.183
204.917	303.329
207.81	211.224
210.703	57.2153
213.596	6.3916
216.488	10.3994
219.381	37.4258
222.274	140.518
225.166	282.638
228.059	308.687
230.952	361.202
233.845	319.205
236.737	324.256
239.63	112.501
242.523	120.671
245.415	47.1201
248.308	7.83691
251.201	106.6
254.093	350.831
256.986	549.294
259.879	864.698
262.772	1075.64
265.664	1288.2
268.557	1364.1
271.45	1479.27
274.342	1528.94
277.235	1776.08
280.128	1944.68
283.02	1854.76
285.913	1300.71
288.806	721.326
291.699	373.895
294.591	159.023
297.484	2.27783
300.377	49.7539
303.269	63.459
306.162	17.895
309.055	221.273
311.947	435.552
314.84	742.42
317.733	1151.58
320.625	1695.5
323.518	2300.6
326.411	2935.04
329.304	3411.84
332.196	3124.03
335.089	2197.7
337.982	1354.18
340.874	795.219
343.767	572.049
346.66	461.697
349.553	400.597
352.445	296.691
355.338	322.114
358.231	444.646
361.123	700.572
364.016	925.128
366.909	1150.09
369.801	1458.06
372.694	1554.99
375.587	1475.32
378.479	1054.57
381.372	651.624
384.265	452.206
387.158	362.175
390.05	341.745
392.943	419.188
395.836	616.525
398.728	644.685
401.621	678.601
404.514	539.551
407.406	211.709
410.299	80.4141
413.192	69.1416
416.085	17.9453
418.977	32.853
421.87	51.1597
424.763	47.4697
427.655	35.9028
430.548	27.1348
433.441	67.8521
436.334	132.161
439.226	222.1
442.119	311.394
445.012	279.094
447.904	382.398
450.797	383.436
453.69	403.267
456.582	404.272
459.475	361.283
462.368	403.209
465.26	319.652
468.153	250.274
471.046	219.727
473.939	167.295
476.831	149.918
479.724	184.878
482.617	330.823
485.509	445.794
488.402	672.717
491.295	812.053
494.188	946.266
497.08	984.757
499.973	658.1
502.866	341.647
505.758	83.8926
508.651	28.6655
511.544	54.5566
514.436	189.609
517.329	422.352
520.222	898.429
523.115	1393.89
526.007	2162.22
528.9	3034.93
531.793	3862.8
534.685	3865.24
537.578	3025.07
540.471	1632.28
543.363	867.608
546.256	408.343
549.149	160.326
552.041	104.931
554.934	49.582
557.827	91.7095
560.72	96.7163
563.612	196.435
566.505	173.898
569.398	105.706
572.29	96.5649
575.183	53.4517
578.076	14.4565
580.968	18.4106
583.861	32.8062
586.754	3.81201
589.646	22.126
592.539	17.8911
595.432	46.0557
598.325	201.512
601.217	242.258
604.11	364.114
607.003	517.477
609.895	736.761
612.788	892.129
615.681	1071.95
618.573	1190.55
621.466	1209.87
624.359	1169.92
627.252	1022.3
630.144	1044.96
633.037	992.899
635.93	949.963
638.822	951.209
641.715	993.533
644.608	880.427
647.5	786.701
650.393	596.381
653.286	503.23
656.179	395.964
659.071	247.113
661.964	149.444
664.857	168.218
667.75	49.6953
670.642	4.35889
673.535	21.9189
676.428	14.1167
679.32	18.7979
682.213	17.1299
685.106	48.0566
687.998	12.543
690.891	22.3355
693.784	44.7676
696.677	23.7871
699.569	62.1289
702.462	57.9849
705.355	56.6089
708.247	105.805
711.14	101.34
714.033	79.6167
716.925	114.331
719.818	195.702
722.711	214.796
725.604	215.738
728.496	199.023
731.389	132.963
734.282	143.756
737.174	126.696
740.067	191.19
742.96	108.345
745.852	152.855
748.745	155.355
751.638	101.374
754.53	161.74
757.423	112.304
760.316	104.124
763.209	121.899
766.101	103.105
768.994	124.295
771.887	107.97
774.779	102.961
777.672	113.402
780.565	138.042
783.457	137.686
786.35	120.174
789.243	138.055
792.136	156.106
795.028	139.104
797.921	115.149
800.814	125.2
803.706	124.583
806.599	95.7856
809.492	74.3169
812.385	71.1514
815.277	50.0679
818.17	54.0366
821.063	33.9385
823.955	19.6279
826.848	18.5581
829.741	14.2974
832.633	42.1152
835.526	23.3237
838.419	14.7461
841.312	12.6226
844.204	55.7612
847.097	1.35059
849.99	21.0752
852.882	11.5942
855.775	20.1939
858.668	12.0654
861.56	71.5537
864.453	28.6543
867.346	59.5415
870.239	82.3008
873.131	123.964
876.024	166.805
878.917	274.834
881.809	297.753
884.702	325.22
887.595	404.677
890.487	438.793
893.38	529.807
896.273	564.688
899.165	580.919
902.058	510.752
904.951	528.197
907.844	438.674
910.736	413.476
913.629	336.501
916.522	208.002
919.414	144.151
922.307	46.2109
925.2	23.1841
928.092	16.2803
930.985	39.4605
933.878	11.062
936.771	47.9605
939.663	62.4605
942.556	28.2891
945.449	19.771
948.341	127.501
951.234	212.55
954.127	411.566
957.019	605.656
959.912	893.295
962.805	1223.81
965.698	1648.92
968.59	2073.19
971.483	2358.16
974.376	2315.27
977.268	2202.25
980.161	1658.94
983.054	1312.01
985.947	1022.27
988.839	886.738
991.732	1018.68
994.625	1228.19
997.517	1688.06
1000.41	2007.71
1003.3	2234.48
1006.2	2229.71
1009.09	2190.57
1011.98	2085.87
1014.87	2094.85
1017.77	2477.94
1020.66	3101.19
1023.55	3653.75
1026.44	3978.93
1029.34	4070.03
1032.23	3924.23
1035.12	3817.71
1038.02	3539.93
1040.91	3146.02
1043.8	2658.08
1046.69	2122.17
1049.59	1679.69
1052.48	1285.63
1055.37	952.712
1058.26	717.625
1061.16	543.383
1064.05	382.573
1066.94	273.675
1069.84	246.175
1072.73	116.086
1075.62	68.3374
1078.51	41.8374
1081.41	12.9341
1084.3	52.1172
1087.19	58.8916
1090.08	47.4937
1092.98	13.6435
1095.87	21.1064
1098.76	98.4853
1101.65	101.163
1104.55	87.5781
1107.44	137.682
1110.33	67.8799
1113.22	41.2056
1116.12	95.8657
1119.01	112.729
1121.9	136.003
1124.8	112.108
1127.69	121.123
1130.58	134.323
1133.47	251.786
1136.37	281.796
1139.26	363.808
1142.15	466.563
1145.05	486.809
1147.94	647.886
1150.83	742.852
1153.72	814.505
1156.62	783.331
1159.51	618.271
1162.4	527.18
1165.29	403.26
1168.19	295.709
1171.08	175.92
1173.97	154.734
1176.87	153.528
1179.76	86.603
1182.65	26.2949
1185.54	60.1416
1188.43	34.4336
1191.33	9.05176
1194.22	23.7251
1197.11	3.3125
1200.01	37.439
