Measurement: Raman, 780 nm, unoriented, Raman Data Processed
Mineral: Vayrynenite
Rruff sample: R050590
Ideal chemistry: Mn^2+^Be(PO_4_)OH
Locality: Shengus, Pakistan
Source: Wayne Thompson
Description: Pinkish brown fragment
Measured chemistry: (Mn^2+^_0.91_Fe^2+^_0.04_[box]_0.05_)Be(PO_4_)(OH_0.90_F_0.10_)
Raman shift (cm-1)	intensity
140.277	0
143.17	1.90952
146.062	0.241457
148.955	1.06112
151.848	1.03981
154.741	1.95046
157.633	5.03957
160.526	17.507
163.419	28.8282
166.311	41.9252
169.204	50.5903
172.097	76.0046
174.989	97.9115
177.882	138.294
180.775	266.641
183.667	353.667
186.56	102.531
189.453	27.8185
192.346	12.9948
195.238	6.24352
198.131	3.9429
201.024	3.92783
203.916	3.25884
206.809	4.59885
209.702	8.49854
212.595	12.7693
215.487	18.0682
218.38	24.7496
221.273	15.1441
224.165	8.66362
227.058	8.10173
229.951	17.0066
232.843	21.8466
235.736	3.81997
238.629	1.39725
241.522	0.205355
244.414	0.527529
247.307	1.15592
250.2	0.425482
253.092	2.83044
255.985	4.71296
258.878	9.64542
261.77	16.2051
264.663	21.2429
267.556	11.2829
270.449	4.12021
273.341	2.58107
276.234	0.1217
279.127	0.732773
282.019	1.62188
284.912	4.78383
287.805	3.50602
290.697	0.975958
293.59	0.732561
296.483	0.086155
299.375	1.59525
302.268	0.021948
305.161	1.48535
308.054	1.94446
310.946	4.23573
313.839	8.7892
316.732	18.2038
319.624	27.7419
322.517	39.2744
325.41	55.9532
328.302	81.0077
331.195	104.278
334.088	136.162
336.981	129.763
339.873	64.6874
342.766	35.9831
345.659	26.6281
348.551	26.7865
351.444	26.2958
354.337	26.1534
357.229	26.4106
360.122	36.6429
363.015	52.7746
365.908	70.368
368.8	96.2216
371.693	138.785
374.586	200.469
377.478	258.604
380.371	224.832
383.264	140.053
386.156	75.4175
389.049	44.3346
391.942	28.3962
394.834	18.8107
397.727	11.4477
400.62	9.11664
403.513	9.31526
406.405	4.12962
409.298	2.58358
412.191	1.43184
415.083	0.415077
417.976	0.277613
420.869	0.856422
423.762	0.053656
426.654	1.25789
429.547	0.300503
432.44	0.728643
435.332	1.898
438.225	5.21456
441.118	9.26329
444.01	20.386
446.903	30.7688
449.796	39.0477
452.688	62.3728
455.581	101.746
458.474	155.277
461.366	157.243
464.259	88.3189
467.152	35.9671
470.045	15.3328
472.937	6.0113
475.83	1.53092
478.723	1.66176
481.615	0.759836
484.508	0.108099
487.401	3.95455
490.293	14.5264
493.186	22.5289
496.079	34.4219
498.972	57.1298
501.864	99.9109
504.757	153.613
507.65	124.457
510.542	64.4234
513.435	57.4399
516.328	37.1812
519.221	25.6428
522.113	31.3426
525.006	40.6184
527.899	62.567
530.791	106.346
533.684	189.225
536.577	242.637
539.469	121.594
542.362	40.5015
545.255	14.1928
548.148	4.64701
551.04	0.068871
553.933	1.64089
556.826	1.53791
559.718	2.80734
562.611	6.83324
565.504	14.2547
568.396	22.7972
571.289	21.2413
574.182	9.56308
577.074	2.64285
579.967	0.272596
582.86	1.46008
585.753	4.58676
588.645	7.48331
591.538	15.7299
594.431	29.8902
597.323	46.1673
600.216	72.3913
603.109	109.793
606.001	149.103
608.894	215.562
611.787	341.975
614.68	532.795
617.572	555.526
620.465	312.514
623.358	142.25
626.25	70.6121
629.143	40.1257
632.036	28.0281
634.928	25.2227
637.821	24.4154
640.714	21.7604
643.606	14.2194
646.499	7.44775
649.392	4.42751
652.285	2.40537
655.177	0.306166
658.07	0.371103
660.963	0.486298
663.855	0.589373
666.748	0.02282
669.641	0.432482
672.534	0.10277
675.426	0.174723
678.319	0.623528
681.212	0.066762
684.104	0.280332
686.997	1.49075
689.89	2.07949
692.782	3.37484
695.675	4.73039
698.568	6.12011
701.461	8.19121
704.353	9.45724
707.246	10.1117
710.139	10.0134
713.031	12.1419
715.924	14.6952
718.817	20.2359
721.709	28.9368
724.602	41.6014
727.495	57.8254
730.388	81.6651
733.28	107.286
736.173	131.359
739.066	135.361
741.958	106.675
744.851	74.1266
747.744	49.2841
750.636	35.142
753.529	26.3115
756.422	21.6042
759.314	17.9829
762.207	17.8192
765.1	17.4671
767.993	17.7639
770.885	14.3513
773.778	10.4457
776.671	8.06497
779.563	4.92653
782.456	6.04806
785.349	6.31769
788.241	6.17124
791.134	6.59844
794.027	4.84014
796.919	4.80365
799.812	4.99842
802.705	2.37144
805.598	1.27007
808.49	0.058918
811.383	1.33293
814.276	1.34997
817.168	0.424311
820.061	1.30112
822.954	1.61598
825.846	0.756628
828.739	0.240064
831.632	0.010637
834.525	0.136319
837.417	0.432542
840.31	0.9996
843.203	1.21739
846.095	0.174214
848.988	1.22926
851.881	0.086208
854.774	1.41566
857.666	1.5949
860.559	1.69826
863.452	0.814882
866.344	1.52517
869.237	2.1582
872.13	2.39436
875.022	2.65692
877.915	2.71632
880.808	2.22006
883.7	3.1182
886.593	3.10872
889.486	5.18294
892.379	5.24077
895.271	5.45661
898.164	5.1669
901.057	3.85192
903.949	1.9346
906.842	0.738886
909.735	0.185629
912.627	1.86289
915.52	0.582573
918.413	1.97958
921.306	1.36659
924.198	0.763309
927.091	0.885185
929.984	2.24894
932.876	6.42598
935.769	7.25543
938.662	5.32188
941.554	6.70168
944.447	7.39907
947.34	12.3249
950.232	16.8266
953.125	24.6964
956.018	33.8635
958.911	48.6797
961.803	69.216
964.696	98.3673
967.589	146.166
970.481	224.893
973.374	334.63
976.267	484.846
979.159	696.681
982.052	862.553
984.945	761.565
987.838	486.627
990.73	362.714
993.623	372.034
996.516	466.794
999.408	691.127
1002.3	1057.74
1005.19	1049.08
1008.09	582.334
1010.98	308.899
1013.87	183.699
1016.76	120.116
1019.66	83.9166
1022.55	61.0824
1025.44	46.3496
1028.34	36.1205
1031.23	30.033
1034.12	26.4966
1037.01	23.7827
1039.91	22.9633
1042.8	16.9168
1045.69	12.1294
1048.58	4.46066
1051.48	1.56876
1054.37	1.01714
1057.26	1.86262
1060.15	0.57551
1063.05	0.16041
1065.94	2.48851
1068.83	6.50848
1071.73	9.53451
1074.62	8.65644
1077.51	1.48739
1080.4	0.9289
1083.3	0.483225
1086.19	0.523422
1089.08	0.045539
1091.97	1.91257
1094.87	0.023976
1097.76	0.03091
1100.65	0.027221
1103.55	0.334323
1106.44	1.71925
1109.33	1.71147
1112.22	2.95009
1115.12	5.20271
1118.01	9.22658
1120.9	15.1788
1123.79	23.0203
1126.69	24.4316
1129.58	24.3943
1132.47	34.8728
1135.37	54.1393
1138.26	74.9749
1141.15	62.0628
1144.04	35.794
1146.94	19.5565
1149.83	10.7622
1152.72	6.67947
1155.61	4.27851
1158.51	4.10764
1161.4	3.50781
1164.29	4.04626
1167.18	3.43134
1170.08	4.71826
1172.97	7.16621
1175.86	8.44962
1178.76	8.72645
1181.65	11.0118
1184.54	11.2151
1187.43	9.30121
1190.33	4.51972
1193.22	3.0154
1196.11	3.08187
1199.01	2.7012
1201.9	1.78919
1204.79	1.80384
1207.68	2.17428
1210.58	2.07933
1213.47	0.143047
1216.36	0.401395
1219.25	0.291799
1222.15	1.03836
1225.04	0.486317
1227.93	0.564038
1230.82	1.28003
1233.72	0.915989
1236.61	0.429746
1239.5	0.4863
1242.39	0.450377
1245.29	0.397666
1248.18	1.51916
1251.07	0.480207
1253.97	1.2529
1256.86	0.166048
1259.75	1.05295
1262.64	0.841666
1265.54	0.730312
1268.43	0.403713
1271.32	0.697257
1274.21	0.355371
1277.11	2.3906
1280	0.117776
1282.89	2.46837
1285.79	0.691088
