Measurement: Raman, 780 nm, unoriented, Raman Data Processed
Mineral: Vayrynenite
Rruff sample: R050243
Ideal chemistry: Mn^2+^Be(PO_4_)OH
Locality: Viitaniemi pegmatite, Erajarvi, Orivesi, Finland
Source: Marcus Origlieri
Description: Pink massive with defined cleavage planes
Measured chemistry: (Mn^2+^_0.95_Fe^2+^_0.05_)_Σ=1_Be_1.00_(P_1.00_O_4_)((OH)_0.94_F_0.06_)_Σ=1_ ; Be not measured but estimated by difference and charge balance.
Raman shift (cm-1)	intensity
140.083	0
142.976	0.393851
145.869	0.076676
148.761	0.336642
151.654	1.95039
154.547	4.19847
157.439	7.1167
160.332	17.4061
163.225	20.6123
166.117	13.0509
169.01	12.3312
171.903	17.0457
174.796	20.9462
177.688	26.1223
180.581	45.2383
183.474	58.7367
186.366	19.0989
189.259	3.7117
192.152	1.00663
195.044	0.226128
197.937	0.186828
200.83	0.317148
203.722	1.23904
206.615	2.7344
209.508	6.42146
212.401	12.4068
215.293	13.9032
218.186	14.4695
221.079	15.9479
223.971	18.8298
226.864	23.5331
229.757	39.8893
232.649	51.8139
235.542	12.0929
238.435	1.93023
241.327	0.36399
244.22	0.011088
247.113	0.108637
250.006	0.055473
252.898	0.473448
255.791	1.29787
258.684	2.20999
261.576	3.91416
264.469	4.51155
267.362	2.65842
270.255	0.838587
273.147	0.302382
276.04	0.365729
278.933	0.808194
281.825	1.68971
284.718	2.56163
287.611	1.61715
290.503	0.025199
293.396	0.322534
296.289	0.405095
299.182	0.421145
302.074	0.005242
304.967	0.504539
307.86	1.10444
310.752	2.32129
313.645	3.56463
316.538	4.67218
319.43	7.10936
322.323	9.61841
325.216	12.8533
328.109	16.9959
331.001	18.2488
333.894	18.9949
336.787	20.1287
339.679	19.504
342.572	19.4104
345.465	21.0648
348.357	24.7765
351.25	25.6846
354.143	19.2632
357.036	12.5144
359.928	10.9402
362.821	11.6206
365.714	13.6642
368.606	16.6118
371.499	21.3096
374.392	28.3814
377.284	33.9468
380.177	29.6567
383.07	18.1123
385.962	10.9503
388.855	6.82633
391.748	5.36008
394.641	4.73926
397.533	5.7362
400.426	7.93102
403.319	7.684
406.211	3.67435
409.104	0.650462
411.997	0.547956
414.889	0.650709
417.782	0.195934
420.675	0.417473
423.568	0.044717
426.46	0.246943
429.353	0.233663
432.246	1.36965
435.138	2.50563
438.031	4.4465
440.924	9.46061
443.817	17.3517
446.709	23.3433
449.602	30.4592
452.495	41.9711
455.387	58.5373
458.28	80.9781
461.173	85.3189
464.065	53.4726
466.958	24.3126
469.851	11.3842
472.743	5.49241
475.636	2.85056
478.529	2.11396
481.422	2.06959
484.314	4.113
487.207	9.31303
490.1	14.8564
492.992	19.2841
495.885	26.4743
498.778	36.6011
501.671	55.2817
504.563	73.565
507.456	53.4898
510.349	24.5988
513.241	15.0837
516.134	8.32252
519.027	4.06152
521.919	2.77814
524.812	2.21227
527.705	2.94104
530.597	4.13701
533.49	6.64899
536.383	7.7956
539.276	3.53504
542.168	0.327419
545.061	0.684265
547.954	0.702768
550.846	0.242902
553.739	0.009635
556.632	0.382408
559.524	1.07544
562.417	2.2595
565.31	3.51663
568.203	4.85049
571.095	5.4321
573.988	5.34961
576.881	7.21843
579.773	11.7113
582.666	15.7032
585.559	20.4716
588.452	28.7311
591.344	40.1534
594.237	56.1986
597.13	56.6783
600.022	44.7268
602.915	37.218
605.808	37.3882
608.7	45.4192
611.593	62.0413
614.486	88.6146
617.379	89.5826
620.271	52.8979
623.164	25.899
626.057	14.2592
628.949	8.9078
631.842	6.82704
634.735	6.70106
637.627	6.91694
640.52	6.25469
643.413	4.21
646.306	2.33446
649.198	1.36352
652.091	0.811402
654.984	0.324418
657.876	0.128907
660.769	0.141415
663.662	0.065011
666.554	0.168311
669.447	0.203783
672.34	0.258781
675.232	0.216845
678.125	0.104991
681.018	0.105556
683.911	0.016106
686.803	0.088762
689.696	0.45528
692.589	0.989925
695.481	1.17235
698.374	1.55992
701.267	2.03521
704.159	2.27567
707.052	2.36057
709.945	2.67361
712.838	3.37375
715.73	4.78237
718.623	7.033
721.516	10.1286
724.408	14.0901
727.301	18.6475
730.194	25.3537
733.087	31.6146
735.979	35.9464
738.872	34.6053
741.765	27.2331
744.657	19.3281
747.55	13.48
750.443	10.152
753.335	8.67562
756.228	7.57509
759.121	7.45443
762.014	7.94991
764.906	8.31007
767.799	8.42237
770.692	6.98
773.584	5.09629
776.477	3.918
779.37	3.69662
782.262	4.41297
785.155	5.25184
788.048	5.87567
790.941	7.5392
793.833	9.61112
796.726	10.767
799.619	8.38866
802.511	5.52045
805.404	2.92384
808.297	1.6124
811.189	1.05235
814.082	0.138532
816.975	0.135111
819.867	0.071604
822.76	0.013015
825.653	0.106106
828.546	0.202638
831.438	0.141949
834.331	0.007414
837.224	0.037163
840.116	0.008863
843.009	0.183184
845.902	0.014068
848.794	0.285732
851.687	0.087868
854.58	0.002251
857.473	0.405674
860.365	0.701906
863.258	0.719194
866.151	0.928607
869.043	1.19908
871.936	1.76236
874.829	1.70799
877.721	2.43553
880.614	2.80101
883.507	3.49272
886.4	4.31989
889.292	5.11706
892.185	5.25312
895.078	5.42586
897.97	4.13668
900.863	3.03671
903.756	1.94099
906.649	1.73807
909.541	0.599862
912.434	0.339979
915.327	0.185436
918.219	0.217712
921.112	0.636897
924.005	0.229877
926.897	0.242936
929.79	0.421576
932.683	0.00586
935.575	0.067451
938.468	0.372747
941.361	0.323517
944.254	0.152886
947.146	0.566955
950.039	1.48144
952.932	2.69345
955.824	4.17409
958.717	6.874
961.61	10.1918
964.502	14.6041
967.395	20.4387
970.288	29.8058
973.181	41.5821
976.073	55.2419
978.966	73.8432
981.859	85.8524
984.751	80.7037
987.644	69.6549
990.537	78.2895
993.429	98.9916
996.322	130.075
999.215	185.86
1002.11	256.223
1005	229.495
1007.89	123.832
1010.79	64.3605
1013.68	37.2103
1016.57	24.1151
1019.46	15.8383
1022.36	11.7797
1025.25	9.2664
1028.14	8.61073
1031.04	9.40034
1033.93	10.3057
1036.82	12.4753
1039.71	14.2593
1042.61	13.4511
1045.5	9.64276
1048.39	5.388
1051.28	3.56804
1054.18	3.51869
1057.07	6.1491
1059.96	10.499
1062.85	15.828
1065.75	23.2949
1068.64	33.0603
1071.53	39.861
1074.42	27.0757
1077.32	11.971
1080.21	4.63404
1083.1	1.61225
1086	0.322309
1088.89	0.226234
1091.78	0.693081
1094.67	0.856867
1097.57	1.00009
1100.46	0.346802
1103.35	0.022539
1106.24	0.179989
1109.14	1.96173
1112.03	5.02101
1114.92	7.70031
1117.82	12.5125
1120.71	20.6773
1123.6	26.0785
1126.49	17.9976
1129.39	13.5412
1132.28	15.077
1135.17	18.2993
1138.06	19.631
1140.96	15.0819
1143.85	9.66378
1146.74	5.84638
1149.63	3.90095
1152.53	2.63581
1155.42	1.72127
1158.31	1.8804
1161.21	2.20444
1164.1	2.17702
1166.99	3.21595
1169.88	4.49335
1172.78	5.66357
1175.67	7.19045
1178.56	9.00002
1181.45	10.2339
1184.35	10.031
1187.24	8.52576
1190.13	7.17738
1193.03	6.20147
1195.92	5.33812
1198.81	4.71777
1201.7	4.125
1204.6	3.60043
1207.49	3.32322
1210.38	2.77335
1213.28	2.16177
1216.17	1.72704
1219.06	1.25449
1221.95	0.926996
1224.85	0.74074
1227.74	0.319652
1230.63	0.021259
1233.52	0.239634
1236.42	0.016938
1239.31	0.407015
1242.2	0.111644
1245.09	0.135506
1247.99	0.110499
1250.88	0.430995
1253.77	0.330622
1256.66	0.831161
1259.56	0.909396
1262.45	1.1829
1265.34	0.821329
1268.24	0.54024
1271.13	0.68254
1274.02	0.753063
1276.91	0.461259
1279.81	0.29154
1282.7	0.088838
1285.59	0.284027
