Measurement: Raman, 532 nm, unoriented, Raman Data Processed
Mineral: Vayrynenite
Rruff sample: R050243
Ideal chemistry: Mn^2+^Be(PO_4_)OH
Locality: Viitaniemi pegmatite, Erajarvi, Orivesi, Finland
Source: Marcus Origlieri
Description: Pink massive with defined cleavage planes
Measured chemistry: (Mn^2+^_0.95_Fe^2+^_0.05_)_Σ=1_Be_1.00_(P_1.00_O_4_)((OH)_0.94_F_0.06_)_Σ=1_ ; Be not measured but estimated by difference and charge balance.
Raman shift (cm-1)	intensity
140.994	0
144.368	0.13736
147.743	1.17446
151.118	2.38526
154.493	6.53366
157.868	14.4224
161.242	38.7468
164.617	48.9609
167.992	32.0911
171.367	38.9134
174.742	54.5095
178.117	71.2594
181.491	148.118
184.866	192.815
188.241	44.6034
191.616	10.1128
194.991	2.42926
198.365	0.286835
201.74	1.0171
205.115	3.15188
208.49	7.44832
211.865	19.0231
215.239	31.2317
218.614	38.8311
221.989	37.6786
225.364	41.2394
228.739	67.9077
232.113	142.778
235.488	70.9938
238.863	7.94012
242.238	1.47041
245.613	0.311459
248.988	0.44323
252.362	1.3485
255.737	2.82512
259.112	6.67657
262.487	14.0539
265.862	15.7287
269.236	6.61444
272.611	2.05665
275.986	1.57951
279.361	2.88722
282.736	4.1199
286.111	6.23543
289.485	2.04163
292.86	0.405148
296.235	0.790634
299.61	1.4077
302.985	0.040348
306.36	0.290295
309.734	2.26129
313.109	5.56681
316.484	10.6422
319.859	17.3214
323.234	26.8849
326.608	42.2517
329.983	53.5925
333.358	54.0515
336.733	55.0582
340.108	54.4459
343.483	55.3059
346.857	65.3132
350.232	82.2474
353.607	75.1063
356.982	45.2834
360.356	32.6912
363.731	36.0112
367.106	45.1192
370.481	62.7021
373.856	93.6046
377.231	134.795
380.605	131.189
383.98	77.8531
387.355	43.7301
390.73	27.7474
394.105	22.1574
397.479	23.9676
400.854	31.408
404.229	31.7841
407.604	15.2524
410.979	5.19316
414.354	1.08731
417.728	0.712437
421.103	1.47169
424.478	1.39069
427.853	1.52748
431.228	0.726822
434.603	2.30336
437.977	5.65664
441.352	13.149
444.727	29.1832
448.102	50.7127
451.477	77.5743
454.851	125.999
458.226	202.687
461.601	246.208
464.976	152.084
468.351	62.2357
471.726	28.3472
475.1	14.375
478.475	8.63425
481.85	5.35328
485.225	7.86048
488.599	16.7022
491.974	33.8431
495.349	54.6036
498.724	88.9463
502.099	154.145
505.474	229.511
508.848	156.405
512.223	67.2666
515.598	39.0973
518.973	16.0433
522.348	7.63814
525.722	6.5573
529.097	10.4883
532.472	15.844
535.847	26.0106
539.222	16.1038
542.597	3.12041
545.971	1.33267
549.346	2.02324
552.721	0.597824
556.096	0.543999
559.471	3.50753
562.846	8.30626
566.22	13.3199
569.595	18.6786
572.97	17.2512
576.345	15.5119
579.72	22.8136
583.094	38.6186
586.469	59.7894
589.844	97.4229
593.219	158.309
596.594	213.475
599.968	170.75
603.343	125.161
606.718	111.834
610.093	145.697
613.468	227.201
616.842	306.062
620.217	218.466
623.592	100.152
626.967	47.438
630.342	30.3051
633.717	25.2931
637.091	25.4608
640.466	23.6109
643.841	16.5121
647.216	9.7262
650.591	5.20908
653.966	3.41132
657.34	1.77675
660.715	0.044044
664.09	0.257431
667.465	0.135796
670.84	0.361107
674.214	1.2053
677.589	0.605247
680.964	0.823082
684.339	0.687202
687.714	0.908577
691.088	1.72887
694.463	3.37237
697.838	6.04113
701.213	9.23476
704.588	10.6349
707.963	9.74523
711.337	10.5893
714.712	12.114
718.087	19.1358
721.462	28.0688
724.837	43.3559
728.212	64.6491
731.586	92.5467
734.961	119.3
738.336	133.514
741.711	111.621
745.086	77.5728
748.46	51.0535
751.835	35.5643
755.21	28.508
758.585	26.649
761.96	26.4166
765.335	28.1971
768.709	29.5529
772.084	22.4275
775.459	16.3213
778.834	13.0178
782.209	14.1039
785.583	16.868
788.958	22.7365
792.333	29.6349
795.708	37.5792
799.083	37.9112
802.457	25.788
805.832	13.5187
809.207	6.78939
812.582	4.56827
815.957	2.65763
819.332	0.959457
822.706	1.01808
826.081	0.610985
829.456	0.155838
832.831	0.130257
836.206	0.166458
839.58	0.133072
842.955	0.44574
846.33	0.073692
849.705	0.963699
853.08	0.164673
856.455	0.306274
859.829	1.11826
863.204	2.30084
866.579	2.64121
869.954	3.97811
873.329	5.65968
876.703	6.68884
880.078	8.74
883.453	11.453
886.828	14.5572
890.203	18.3628
893.577	21.1372
896.952	21.0463
900.327	14.4128
903.702	11.0178
907.077	6.46607
910.452	3.00194
913.826	1.14874
917.201	0.441628
920.576	0.302673
923.951	1.2438
927.326	0.781296
930.7	1.25116
934.075	0.69474
937.45	0.49054
940.825	1.20022
944.2	0.334068
947.574	0.646843
950.949	3.77462
954.324	7.13179
957.699	14.0273
961.074	24.0761
964.449	40.9517
967.823	59.2891
971.198	89.429
974.573	139.845
977.948	212.596
981.323	295.185
984.697	312.436
988.072	255.093
991.447	262.7
994.822	370.222
998.197	584.609
1001.57	995.556
1004.95	1247.23
1008.32	727.056
1011.7	340.705
1015.07	182.311
1018.45	109.621
1021.82	70.2292
1025.19	51.6105
1028.57	40.0276
1031.94	38.7916
1035.32	44.2751
1038.69	53.3707
1042.07	56.4547
1045.44	44.1863
1048.82	24.6121
1052.19	11.7961
1055.57	11.0014
1058.94	18.3911
1062.32	35.5091
1065.69	66.9519
1069.07	115.374
1072.44	158.286
1075.82	105.864
1079.19	39.1167
1082.57	14.3559
1085.94	3.62941
1089.32	0.820541
1092.69	2.36472
1096.07	2.66821
1099.44	2.36139
1102.82	1.16924
1106.19	0.935089
1109.57	5.11269
1112.94	16.2373
1116.32	34.9921
1119.69	67.1603
1123.07	125.788
1126.44	114.608
1129.82	53.6551
1133.19	41.168
1136.56	49.2907
1139.94	54.729
1143.31	34.7875
1146.69	16.348
1150.06	8.68619
1153.44	3.0872
1156.81	1.56041
1160.19	0.419357
1163.56	0.290649
1166.94	2.56969
1170.31	4.44641
1173.69	7.55908
1177.06	12.0357
1180.44	17.1425
1183.81	23.4418
1187.19	15.8332
1190.56	10.1259
1193.94	6.45578
1197.31	2.23822
1200.69	1.86
1204.06	0.877899
1207.43	2.2292
1210.81	1.22531
1214.18	0.394241
1217.56	0.929947
1220.93	0.316101
1224.31	0.516312
1227.68	0.444427
1231.06	1.25478
1234.43	1.08775
1237.81	0.198837
1241.18	0.098846
1244.56	1.15997
1247.93	0.501205
1251.31	0.496521
1254.68	0.458511
1258.06	0.647964
1261.43	1.03426
1264.81	1.67624
1268.18	2.38031
1271.56	0.966293
1274.93	1.32957
1278.31	0.580399
1281.68	1.35655
1285.06	1.52564
1288.43	0.446121
1291.81	0.266479
1295.18	0.613907
1298.56	1.22342
1301.93	1.03319
1305.31	0.590622
