Measurement: Raman, 532 nm, unoriented, Raman Data Processed
Mineral: Vayrynenite
Rruff sample: R050590
Ideal chemistry: Mn^2+^Be(PO_4_)OH
Locality: Shengus, Pakistan
Source: Wayne Thompson
Description: Pinkish brown fragment
Measured chemistry: (Mn^2+^_0.91_Fe^2+^_0.04_[box]_0.05_)Be(PO_4_)(OH_0.90_F_0.10_)
Raman shift (cm-1)	intensity
140.773	0
144.148	0.108257
147.523	2.69635
150.898	2.16301
154.273	4.35004
157.647	11.4245
161.022	26.1395
164.397	47.0648
167.772	92.3019
171.147	134.273
174.522	191.174
177.896	247.016
181.271	493.76
184.646	531.338
188.021	98.9779
191.396	30.6929
194.77	14.2258
198.145	7.9763
201.52	8.83657
204.895	11.0441
208.27	17.1352
211.645	28.872
215.019	44.1201
218.394	59.4153
221.769	37.5519
225.144	16.8728
228.519	14.5606
231.893	23.6782
235.268	5.69331
238.643	2.60304
242.018	1.69086
245.393	0.942789
248.768	5.36024
252.142	9.95087
255.517	17.1062
258.892	28.1796
262.267	48.1564
265.642	53.2898
269.017	26.1813
272.391	18.7968
275.766	18.282
279.141	24.4268
282.516	40.0251
285.891	48.315
289.265	25.7796
292.64	7.14472
296.015	0.571655
299.39	2.34495
302.765	2.3514
306.14	0.665689
309.514	1.45974
312.889	6.05182
316.264	13.9989
319.639	33.2545
323.014	58.571
326.389	87.9179
329.763	136.259
333.138	205.752
336.513	250.909
339.888	137.835
343.263	74.6145
346.637	61.5937
350.012	64.7503
353.387	62.1478
356.762	53.145
360.137	70.6441
363.512	115.515
366.886	176.365
370.261	264.098
373.636	408.966
377.011	568.835
380.386	519.399
383.76	284.938
387.135	149.327
390.51	81.9559
393.885	48.5862
397.26	29.1783
400.635	21.9995
404.009	18.9039
407.384	9.4257
410.759	4.9905
414.134	1.03865
417.509	1.14933
420.884	1.79487
424.258	1.33378
427.633	2.36285
431.008	5.46831
434.383	9.31381
437.758	16.1409
441.132	29.5404
444.507	64.2784
447.882	117.246
451.257	183.386
454.632	300.723
458.007	467.265
461.381	484.166
464.756	240.515
468.131	85.5522
471.506	34.2019
474.881	12.1127
478.255	1.5814
481.63	2.58812
485.005	3.54513
488.38	1.12844
491.755	8.27961
495.13	21.988
498.504	50.9768
501.879	105.55
505.254	167.458
508.629	152.503
512.004	158.194
515.379	147.673
518.753	69.1538
522.128	82.8617
525.503	136.073
528.878	236.161
532.253	414.345
535.627	631.446
539.002	388.815
542.377	108.579
545.752	29.4292
549.127	5.30149
552.501	1.4315
555.876	3.44334
559.251	15.9861
562.626	36.9406
566.001	67.1043
569.376	86.5681
572.75	57.4511
576.125	17.8151
579.5	4.51372
582.875	5.75378
586.25	16.0371
589.625	33.9789
592.999	64.3928
596.374	105.348
599.749	146.436
603.124	216.115
606.499	342.169
609.874	577.944
613.248	924.776
616.623	1224.48
619.998	777.562
623.373	328.746
626.748	138.051
630.122	70.4085
633.497	42.5424
636.872	30.8956
640.247	23.4159
643.622	13.2226
646.996	6.18136
650.371	2.63847
653.746	1.01582
657.121	1.11036
660.496	1.39472
663.871	1.33377
667.245	2.02445
670.62	1.04043
673.995	0.320257
677.37	0.001999
680.745	1.16375
684.12	2.11667
687.494	3.94732
690.869	8.88028
694.244	13.0639
697.619	19.9881
700.994	28.8495
704.368	34.413
707.743	33.0825
711.118	30.0514
714.493	36.699
717.868	50.0859
721.243	74.6856
724.617	117.784
727.992	179.048
731.367	262.366
734.742	351.558
738.117	383.522
741.491	316.998
744.866	206.566
748.241	130.348
751.616	88.8523
754.991	65.7967
758.366	55.2659
761.74	52.7627
765.115	55.4736
768.49	56.9616
771.865	44.3658
775.24	28.0002
778.615	22.4212
781.989	22.2417
785.364	23.2869
788.739	19.5279
792.114	12.0891
795.489	12.5266
798.863	10.9764
802.238	6.77495
805.613	1.83129
808.988	0.279579
812.363	0.849907
815.737	1.10728
819.112	0.094532
822.487	0.394257
825.862	0.55537
829.237	0.885452
832.612	0.075169
835.986	0.067802
839.361	0.072468
842.736	0.068398
846.111	0.54847
849.486	0.11837
852.861	1.71461
856.235	1.73874
859.61	3.78572
862.985	4.74191
866.36	4.93406
869.735	4.4831
873.11	4.5314
876.484	5.34428
879.859	4.63355
883.234	6.19239
886.609	6.97083
889.984	10.1183
893.358	9.07574
896.733	10.3182
900.108	6.07501
903.483	1.71834
906.858	0.495403
910.232	2.79104
913.607	4.98609
916.982	3.64883
920.357	4.91414
923.732	0.675293
927.107	4.07872
930.481	11.1098
933.856	18.4209
937.231	12.7097
940.606	5.94745
943.981	8.98838
947.356	13.3436
950.73	24.5508
954.105	39.1268
957.48	60.4551
960.855	92.6705
964.23	139.132
967.605	208.882
970.979	333.824
974.354	547.435
977.729	871.564
981.104	1230.19
984.479	1222.32
987.853	855.875
991.228	850.95
994.603	1313.32
997.978	2207.13
1001.35	3773.56
1004.73	4229.58
1008.1	2147.18
1011.48	1013
1014.85	574.391
1018.23	359.604
1021.6	247.16
1024.98	182.463
1028.35	149.012
1031.73	140.473
1035.1	138.924
1038.48	142.713
1041.85	127.337
1045.22	79.1803
1048.6	36.7248
1051.97	14.4134
1055.35	3.99126
1058.72	2.76971
1062.1	1.45323
1065.47	2.95184
1068.85	12.6728
1072.22	20.1535
1075.6	11.0666
1078.97	1.25066
1082.35	2.62955
1085.72	1.93715
1089.1	4.16127
1092.47	1.69775
1095.85	1.69442
1099.22	0.630379
1102.6	1.26128
1105.97	3.08532
1109.35	8.19427
1112.72	10.5122
1116.1	17.4301
1119.47	32.6214
1122.85	54.0664
1126.22	63.5812
1129.6	92.2703
1132.97	153.453
1136.35	247.537
1139.72	276.553
1143.1	158.114
1146.47	75.7863
1149.85	42.7056
1153.22	26.2804
1156.59	18.3595
1159.97	14.9692
1163.34	13.6178
1166.72	14.4796
1170.09	17.2583
1173.47	21.7254
1176.84	29.1536
1180.22	36.6286
1183.59	39.5491
1186.97	30.0976
1190.34	19.2285
1193.72	12.7623
1197.09	9.47066
1200.47	7.94754
1203.84	6.15416
1207.22	4.78619
1210.59	4.92672
1213.97	4.61526
1217.34	4.3419
1220.72	3.36672
1224.09	4.17891
1227.47	4.11274
1230.84	3.1546
1234.21	2.1353
1237.59	1.98602
1240.96	0.197796
1244.34	0.335007
1247.71	0.143501
1251.09	0.141132
1254.46	0.259789
1257.84	0.477112
1261.21	1.29276
1264.59	3.35015
1267.96	2.07095
1271.34	1.63375
1274.71	2.38804
1278.09	1.73877
1281.46	0.586311
1284.84	0.473221
1288.21	0.855938
1291.59	1.32186
1294.96	3.43116
1298.34	2.12709
1301.71	0.499123
