Measurement: Raman, 532 nm, unoriented, Raman Data Processed
Mineral: Veatchite
Rruff sample: R060348
Ideal chemistry: Sr_2_[B_5_O_8_(OH)]_2_B(OH)_3_H_2_O
Locality: 1360' level, 2S Drift, Billie mine, Death Valley, Inyo County, California, USA
Source: Michael Scott
Description: Transparent white fibrous and platy mass
Measured chemistry: (Sr_1.98_Ca_0.02_)_Σ=2_[B_5_O_8_(OH)]_2_B(OH)_3_·H_2_O; B and H not measured but assumed by stoichiometry
Raman shift (cm-1)	intensity
160.881	0
163.774	1.78815
166.667	7.64133
169.559	19.6729
172.452	21.4309
175.345	18.105
178.237	22.517
181.13	24.7669
184.023	32.3951
186.916	34.6707
189.808	31.4014
192.701	24.5347
195.594	19.2508
198.486	20.1822
201.379	12.5612
204.272	12.8692
207.164	7.76482
210.057	3.5363
212.95	6.11166
215.843	0.248657
218.735	3.18308
221.628	1.93539
224.521	0.661697
227.413	5.25572
230.306	2.79156
233.199	1.24397
236.091	0.099808
238.984	9.65089
241.877	9.61781
244.769	10.114
247.662	4.33603
250.555	1.83688
253.448	0.554596
256.34	3.58426
259.233	4.22966
262.126	0.064301
265.018	0.301498
267.911	9.88057
270.804	16.0948
273.697	34.679
276.589	46.4869
279.482	65.7394
282.375	94.5587
285.267	134.922
288.16	194.68
291.053	153.067
293.945	70.8459
296.838	26.2882
299.731	11.2287
302.623	6.70714
305.516	2.42967
308.409	0.628281
311.302	10.9985
314.194	4.12465
317.087	4.34979
319.98	1.30608
322.872	2.37175
325.765	1.63135
328.658	2.63811
331.55	3.23552
334.443	10.9013
337.336	18.5901
340.229	27.4391
343.121	30.2745
346.014	29.9058
348.907	33.6971
351.799	44.0597
354.692	44.5601
357.585	49.7886
360.478	43.6109
363.37	37.0436
366.263	24.2825
369.156	10.1747
372.048	9.14883
374.941	3.392
377.834	2.73016
380.726	1.85077
383.619	6.27881
386.512	5.59116
389.404	6.88754
392.297	9.1134
395.19	10.3435
398.083	15.1827
400.975	19.2171
403.868	26.2052
406.761	28.412
409.653	25.1104
412.546	18.6172
415.439	6.00739
418.332	1.2807
421.224	0.56604
424.117	4.86585
427.01	1.37067
429.902	2.72281
432.795	2.16705
435.688	5.19308
438.58	4.60342
441.473	9.62085
444.366	9.19022
447.259	16.5301
450.151	29.5187
453.044	35.2905
455.937	51.3115
458.829	83.5527
461.722	110.799
464.615	85.4406
467.507	55.7062
470.4	51.4899
473.293	63.0272
476.185	84.9644
479.078	99.8709
481.971	59.7574
484.864	53.2914
487.756	38.2724
490.649	44.8311
493.542	62.3336
496.434	80.0747
499.327	74.6922
502.22	35.2302
505.113	23.248
508.005	20.5252
510.898	12.6428
513.791	10.801
516.683	8.04059
519.576	7.04938
522.469	1.3652
525.361	0.348328
528.254	2.13571
531.147	2.12311
534.04	2.85379
536.932	4.87271
539.825	1.49472
542.718	0.128571
545.61	5.11505
548.503	11.1131
551.396	15.3193
554.288	12.1187
557.181	22.0035
560.074	23.5202
562.967	28.9899
565.859	39.3387
568.752	27.3677
571.645	10.1502
574.537	1.94253
577.43	0.926117
580.323	0.974731
583.216	2.40717
586.108	0.978912
589.001	4.80084
591.894	14.0786
594.786	29.5924
597.679	41.3678
600.572	58.2136
603.464	93.0411
606.357	98.9866
609.25	67.7606
612.142	33.2152
615.035	19.1515
617.928	18.8008
620.821	16.3434
623.713	14.3408
626.606	21.0399
629.499	20.5896
632.391	26.5727
635.284	12.024
638.177	3.39334
641.069	2.08484
643.962	2.12155
646.855	1.14642
649.747	4.49747
652.64	1.56088
655.533	3.66455
658.426	5.42844
661.318	9.22678
664.211	6.69412
667.104	10.1056
669.996	10.6375
672.889	2.46497
675.782	3.74844
678.674	3.2767
681.567	5.64352
684.46	1.17181
687.353	4.39099
690.245	1.39398
693.138	0.429962
696.031	2.18613
698.923	2.23636
701.816	0.820343
704.709	7.14597
707.601	11.8221
710.494	12.262
713.387	7.41479
716.28	14.4804
719.172	14.8767
722.065	6.17636
724.958	3.93082
727.85	0.472809
730.743	6.47263
733.636	2.54623
736.529	5.30792
739.421	5.90912
742.314	9.06546
745.207	22.3755
748.099	34.1437
750.992	49.4721
753.885	71.4112
756.777	93.4099
759.67	119.499
762.563	142.677
765.456	139.194
768.348	111.218
771.241	63.4166
774.134	31.3368
777.026	17.4603
779.919	7.7471
782.812	9.14853
785.704	3.66974
788.597	4.94019
791.49	2.64172
794.383	0.632355
797.275	0.045563
800.168	1.88031
803.061	3.41513
805.953	6.87604
808.846	12.431
811.739	20.2076
814.631	28.4706
817.524	37.3712
820.417	39.1485
823.309	30.0853
826.202	13.6023
829.095	19.0787
831.988	14.6516
834.88	15.4814
837.773	12.8394
840.666	20.8432
843.558	29.6689
846.451	45.5626
849.344	64.7675
852.236	73.1319
855.129	67.8565
858.022	38.564
860.915	14.0762
863.807	0.990417
866.7	1.82761
869.593	2.32013
872.485	2.66174
875.378	1.71457
878.271	4.33496
881.163	9.21039
884.056	34.4575
886.949	50.4116
889.842	82.0124
892.734	122.138
895.627	169.125
898.52	166.095
901.412	86.6157
904.305	33.8475
907.198	13.3932
910.091	8.37146
912.983	5.45102
915.876	1.36426
918.769	1.55832
921.661	5.29694
924.554	21.8763
927.447	18.8007
930.339	27.2245
933.232	30.1629
936.125	27.4857
939.018	22.16
941.91	21.8154
944.803	19.3263
947.696	11.7461
950.588	9.18741
953.481	7.90555
956.374	8.50772
959.266	10.5224
962.159	16.7873
965.052	19.8864
967.944	17.122
970.837	20.5879
973.73	23.7221
976.623	19.8581
979.515	19.6096
982.408	19.5478
985.301	14.8047
988.193	15.8962
991.086	12.655
993.979	14.5033
996.871	9.88486
999.764	4.81119
1002.66	1.55121
1005.55	2.71393
1008.44	0.582489
1011.34	5.03101
1014.23	5.17227
1017.12	4.70352
1020.01	0.699127
1022.91	3.04929
1025.8	2.96765
1028.69	2.26517
1031.58	4.25095
1034.48	0.366486
1037.37	2.8219
1040.26	2.95447
1043.15	2.14535
1046.05	1.38901
1048.94	5.30444
1051.83	3.2973
1054.73	11.6873
1057.62	10.5453
1060.51	6.24374
1063.4	11.3083
1066.3	7.55356
1069.19	1.31366
1072.08	5.43842
1074.97	3.88562
1077.87	3.04123
1080.76	6.54166
1083.65	3.84524
1086.55	5.94238
1089.44	3.73642
1092.33	9.99551
1095.22	2.17395
1098.12	3.23639
1101.01	4.09732
1103.9	1.36734
1106.79	3.98239
1109.69	10.951
1112.58	12.473
1115.47	9.80264
1118.37	10.657
1121.26	14.0733
1124.15	9.61581
1127.04	8.06461
1129.94	13.5691
1132.83	12.959
1135.72	12.7726
1138.61	12.4047
1141.51	17.4723
1144.4	8.20596
1147.29	12.4095
1150.18	5.89651
1153.08	12.3613
1155.97	10.5646
1158.86	4.58636
1161.76	4.90109
1164.65	6.51645
1167.54	1.99225
1170.43	4.39389
1173.33	5.36917
1176.22	7.36642
1179.11	6.84888
1182	0.967285
1184.9	1.04434
1187.79	1.73627
1190.68	3.73618
1193.58	1.31189
1196.47	3.97958
1199.36	2.19568
1202.25	4.86127
1205.15	0.235687
1208.04	4.24582
1210.93	3.15857
1213.82	7.49832
1216.72	4.7825
1219.61	2.70297
1222.5	5.7298
1225.39	8.13382
1228.29	10.8266
1231.18	18.3875
1234.07	26.4444
1236.97	27.2945
1239.86	11.7525
1242.75	13.3977
1245.64	8.31857
1248.54	6.75827
1251.43	10.8739
1254.32	7.06116
1257.21	0.973358
1260.11	4.65829
1263	6.96744
1265.89	9.56857
1268.79	0.065369
1271.68	4.02502
1274.57	3.70557
1277.46	2.89993
1280.36	3.48108
1283.25	5.70807
1286.14	7.59857
1289.03	2.48428
1291.93	0.630524
1294.82	7.26349
1297.71	4.04483
1300.61	3.17746
