Measurement: Raman, 780 nm, unoriented, Raman Data Processed
Mineral: Veenite
Rruff sample: R130407
Ideal chemistry: Pb_2_Sb_2_S_5_
Locality: Madoc, Ontario, Canada
Source: Rock Currier
Description: Steel gray metallic massive with red internal reflections, associated with boulangerite, reddish-brown sphalerite, and calcite
Measured chemistry: (Pb_1.94_Ag_0.01_)_Σ1.95_(Sb_1.13_As_0.87_)_Σ2.00_S_5.00
Raman shift (cm-1)	intensity
96.0207	0
99.3956	0.493927
102.77	2.75787
106.145	2.41083
109.52	0.474457
112.895	2.24789
116.27	5.79324
119.644	5.50861
123.019	8.16065
126.394	5.76584
129.769	4.69919
133.144	1.58434
136.518	0.385757
139.893	0.06131
143.268	2.80948
146.643	0.94342
150.018	0.178162
153.393	1.68004
156.767	5.04092
160.142	5.29993
163.517	7.55664
166.892	9.43445
170.267	9.17638
173.642	10.2864
177.016	13.3725
180.391	17.4793
183.766	21.2839
187.141	28.1438
190.516	33.6237
193.89	38.7684
197.265	45.4516
200.64	50.8935
204.015	56.8951
207.39	59.576
210.764	60.547
214.139	55.5617
217.514	51.3526
220.889	46.0864
224.264	40.325
227.638	34.343
231.013	30.347
234.388	26.7038
237.763	26.8973
241.138	25.3768
244.513	21.1049
247.887	21.8122
251.262	21.5175
254.637	21.7463
258.012	23.3091
261.387	22.0997
264.762	20.6361
268.136	17.6136
271.511	13.8352
274.886	8.79384
278.261	5.31438
281.635	1.16948
285.01	1.97987
288.385	0.43956
291.76	4.35968
295.135	12.1372
298.51	19.2172
301.884	25.9732
305.259	31.5017
308.634	33.5546
312.009	35.333
315.384	34.3971
318.759	33.9128
322.133	32.6263
325.508	30.6863
328.883	27.3463
332.258	19.749
335.633	13.5725
339.007	7.81739
342.382	3.28518
345.757	1.53014
349.132	1.21956
352.507	1.89909
355.882	0.204834
359.256	0.107597
362.631	1.59811
366.006	0.804832
369.381	0.715225
372.755	0.058464
376.13	0.279957
379.505	0.66526
382.88	1.86709
386.255	2.3049
389.63	4.51515
393.004	4.9305
396.379	6.09693
399.754	7.68379
403.129	8.26441
406.504	8.4371
409.878	8.59447
413.253	8.65417
416.628	10.3186
420.003	11.1414
423.378	8.08759
426.753	8.29116
430.127	8.08821
433.502	7.91106
436.877	7.3676
440.252	6.46735
443.627	6.09895
447.001	6.3783
450.376	5.31187
453.751	5.00954
457.126	5.34037
460.501	4.18708
463.875	4.02553
467.25	3.89808
470.625	3.56059
474	2.62178
477.375	3.60917
480.75	2.89002
484.124	2.92974
487.499	2.33504
490.874	2.32344
494.249	1.75019
497.624	1.33162
500.998	1.16079
504.373	0.585541
507.748	1.12838
511.123	0.470867
514.498	1.55541
517.873	0.833157
521.247	0.666523
524.622	0.530819
527.997	0.559265
531.372	0.239399
534.747	0.067741
538.121	0.134075
541.496	0.155876
544.871	0.225517
548.246	0.323097
551.621	0.366787
554.995	0.08503
558.37	0.118324
561.745	0.120476
565.12	0.048504
568.495	0.178635
571.87	0.241352
575.244	0.530266
578.619	0.157852
581.994	0.300678
585.369	0.56567
588.744	0.081131
592.119	0.071983
595.493	0.544178
598.868	0.170044
602.243	0.209637
605.618	0.180714
608.993	0.150547
612.367	0.938679
615.742	0.463009
619.117	0.515434
622.492	0.569237
625.867	0.26083
629.241	1.00275
632.616	0.347351
635.991	1.12672
639.366	0.767944
642.741	0.571198
646.115	0.712372
649.49	0.777878
652.865	0.4258
656.24	1.10981
659.615	0.51112
662.99	0.992741
666.364	0.508823
669.739	0.172749
673.114	0.400932
676.489	0.569778
679.864	0.575348
683.239	0.099358
686.613	0.579224
689.988	0.135109
693.363	0.001034
696.738	0.452393
700.112	0.050011
703.487	0.535206
706.862	0.916389
710.237	0.79265
713.612	1.13437
716.987	0.808065
720.361	0.165432
723.736	0.404188
727.111	0.404572
730.486	0.587502
733.861	0.797831
737.236	0.608231
740.61	0.934916
743.985	0.095551
747.36	0.43362
750.735	0.450428
754.11	0.185993
757.484	0.665895
760.859	0.186523
764.234	0.471563
767.609	0.526167
770.984	0.227365
774.359	0.088358
777.733	0.043783
781.108	0.399464
784.483	0.261137
787.858	0.482864
791.232	0.440891
794.607	0.392868
797.982	0.238802
801.357	0.024975
804.732	0.397572
808.107	0.313032
811.481	0.711742
814.856	0.628372
818.231	0.290075
821.606	0.440609
824.981	0.522476
828.356	0.592966
831.73	0.383354
835.105	0.573496
838.48	0.660425
841.855	0.866226
845.23	0.766939
848.604	0.617384
851.979	0.170834
855.354	0.860296
858.729	0.998644
862.104	0.089279
865.479	0.198858
868.853	0.96349
872.228	0.285618
875.603	0.037592
878.978	0.494926
882.352	0.456184
885.727	0.141291
889.102	0.574224
892.477	0.973341
895.852	0.474533
899.227	0.697729
902.601	0.175447
905.976	0.115696
909.351	0.378975
912.726	0.502337
916.101	0.388914
919.476	0.059729
922.85	0.142246
926.225	0.060379
929.6	0.387051
932.975	0.173962
936.35	0.123917
939.724	0.264551
943.099	0.067116
946.474	0.959953
949.849	0.414684
953.224	0.181376
956.598	0.572182
959.973	0.577063
963.348	0.152592
966.723	0.906721
970.098	0.601448
973.472	0.036419
976.847	0.222305
980.222	0.239832
983.597	0.29598
986.972	0.738199
990.347	0.42976
993.721	0.082907
997.096	0.234638
1000.47	0.026506
1003.85	0.323269
1007.22	0.359055
1010.6	0.618275
1013.97	0.427378
1017.35	0.903473
1020.72	0.359272
1024.1	0.407995
1027.47	0.598129
1030.84	0.293587
1034.22	0.528513
1037.59	0.706182
1040.97	0.262655
1044.34	0.271166
1047.72	0.393845
1051.09	0.569843
1054.47	0.676374
1057.84	0.399773
1061.22	1.05028
1064.59	0.605192
1067.97	0.397602
1071.34	0.801266
1074.72	0.905996
1078.09	0.286669
1081.47	1.70046
1084.84	5.58857
1088.22	5.54623
1091.59	1.27665
1094.97	0.307695
1098.34	0.386959
1101.71	0.541348
1105.09	0.554575
1108.46	0.099245
1111.84	0.03459
1115.21	0.630802
1118.59	0.542294
1121.96	0.434879
1125.34	0.75841
1128.71	0.83333
1132.09	0.24427
1135.46	0.433769
1138.84	0.65052
1142.21	0.152096
1145.59	0.527033
1148.96	0.563261
1152.34	0.110023
1155.71	0.392281
1159.09	0.214996
1162.46	0.455666
1165.84	0.833359
1169.21	0.496532
1172.59	0.53392
1175.96	0.793262
1179.34	0.66378
1182.71	0.561916
1186.09	0.834023
1189.46	0.674835
1192.84	0.837688
1196.21	0.695313
1199.59	0.701385
1202.96	0.243622
1206.34	0.501877
1209.71	0.656624
1213.08	0.497669
1216.46	0.583473
1219.83	0.767845
1223.21	0.09605
1226.58	0.828781
1229.96	0.608303
1233.33	0.025024
1236.71	0.459614
1240.08	0.463314
1243.46	0.434158
1246.83	0.299595
1250.21	0.469337
1253.58	0.763977
1256.96	0.112274
1260.33	0.476475
1263.71	0.857105
1267.08	0.458817
1270.46	0.455872
1273.83	0.202694
1277.21	0.537598
1280.58	0.513351
1283.95	0
