Measurement: Raman, 780 nm, unoriented, Raman Data Processed
Mineral: Vergasovaite
Rruff sample: R061141
Ideal chemistry: Cu_3_O(MoO_4_)(SO_4_)
Locality: Tolbachik Volcano, Kamchatka, Russia
Source: Michael Scott
Description: Dark green prismatic, co-type material, associated with apple green euchlorine
Measured chemistry: (Cu_2.97_Zn_0.03_)_Σ=3_O(Mo_0.98_S_0.02_)_Σ=1_O_4_(S_1.00_O_4_); trace amounts of Fe
Raman shift (cm-1)	intensity
86.6758	0
90.0506	118.157
93.4254	409.606
96.8002	859.379
100.175	1236.91
103.55	1254.93
106.925	894.342
110.299	491.728
113.674	393.335
117.049	290.606
120.424	145.894
123.799	90.8615
127.174	47.2952
130.548	99.0866
133.923	80.3643
137.298	118.377
140.673	143.573
144.048	86.8649
147.423	78.6093
150.797	46.1078
154.172	90.3503
157.547	11.5517
160.922	61.6685
164.297	10.0645
167.671	9.70471
171.046	0.541687
174.421	11.3918
177.796	23.0434
181.171	29.7551
184.546	39.0632
187.92	2.26825
191.295	15.2961
194.67	0.619263
198.045	49.345
201.42	24.8656
204.794	16.6259
208.169	24.2313
211.544	17.3804
214.919	96.1614
218.294	76.0058
221.668	107.003
225.043	172.56
228.418	163.645
231.793	143.699
235.168	186.572
238.543	131.041
241.917	127.926
245.292	79.7035
248.667	44.4235
252.042	30.2004
255.417	48.1961
258.791	26.974
262.166	2.47867
265.541	38.9154
268.916	10.5983
272.291	1.74527
275.666	3.60406
279.04	45.3127
282.415	12.0675
285.79	46.2247
289.165	68.2462
292.54	128.683
295.914	146
299.289	195.109
302.664	240.551
306.039	300.849
309.414	344.986
312.788	421.527
316.163	455.723
319.538	398.213
322.913	424.052
326.288	383.301
329.663	406.331
333.037	456.545
336.412	483.032
339.787	447.737
343.162	503.947
346.537	496.362
349.911	545.182
353.286	477.329
356.661	516.277
360.036	478.992
363.411	424.663
366.786	434.775
370.16	409.83
373.535	371.756
376.91	320.264
380.285	294.456
383.66	279.629
387.034	228.729
390.409	211.14
393.784	144.639
397.159	98.5225
400.534	51.9644
403.909	27.329
407.283	20.0496
410.658	12.1489
414.033	14.676
417.408	2.20837
420.783	32.4834
424.158	8.38245
427.532	22.5098
430.907	13.3089
434.282	7.16577
437.657	32.3368
441.032	7.69223
444.406	1.74497
447.781	4.67349
451.156	0.875565
454.531	19.8264
457.906	8.0894
461.281	48.9806
464.655	70.8764
468.03	66.5483
471.405	71.9032
474.78	79.8036
478.155	78.2684
481.529	43.1972
484.904	51.5013
488.279	26.3611
491.654	61.3104
495.029	68.4297
498.404	107.407
501.778	96.6757
505.153	89.6672
508.528	89.4556
511.903	119.665
515.278	110.901
518.652	112.332
522.027	88.8913
525.402	56.142
528.777	63.9971
532.152	50.9674
535.527	52.1722
538.901	76.4917
542.276	54.4635
545.651	25.8899
549.026	61.9184
552.401	6.78789
555.775	24.6214
559.15	1.08505
562.525	27.6855
565.9	5.65088
569.275	20.174
572.649	8.28204
576.024	22.4456
579.399	28.8272
582.774	34.1778
586.149	19.3203
589.524	13.8829
592.898	10.4899
596.273	52.383
599.648	42.09
603.023	28.9171
606.398	65.5376
609.773	74.483
613.147	70.4251
616.522	92.0762
619.897	123.933
623.272	134.455
626.646	150.137
630.021	96.4946
633.396	90.1489
636.771	95.1013
640.146	68.9877
643.521	2.76506
646.895	35.5673
650.27	41.1542
653.645	46.5851
657.02	45.1956
660.395	43.0582
663.769	23.8158
667.144	39.0905
670.519	46.0185
673.894	19.4636
677.269	41.8503
680.644	35.0364
684.018	33.7612
687.393	7.50168
690.768	2.52856
694.143	32.7352
697.518	16.3335
700.893	64.4957
704.267	31.3749
707.642	34.4344
711.017	39.3624
714.392	48.2525
717.767	27.6751
721.141	36.0406
724.516	36.0994
727.891	10.7094
731.266	17.5431
734.641	15.19
738.015	12.5854
741.39	30.3354
744.765	21.5044
748.14	15.7341
751.515	23.2142
754.89	13.1827
758.264	10.8221
761.639	11.8281
765.014	4.1521
768.389	46.565
771.764	36.1608
775.139	57.7417
778.513	81.1167
781.888	65.968
785.263	70.8343
788.638	61.7569
792.013	79.0735
795.387	35.2543
798.762	31.1579
802.137	34.3416
805.512	54.5115
808.887	31.2132
812.261	41.7233
815.636	84.9136
819.011	83.2174
822.386	134.209
825.761	137.45
829.136	191.049
832.51	233.363
835.885	203.664
839.26	165.203
842.635	169.838
846.01	112.085
849.385	79.2587
852.759	51.2
856.134	31.9732
859.509	25.8959
862.884	16.5745
866.259	36.9138
869.633	35.225
873.008	38.7433
876.383	31.6582
879.758	13.9956
883.133	42.7772
886.508	28.4637
889.882	10.5802
893.257	3.37494
896.632	19.6002
900.007	7.51708
903.382	30.3231
906.756	0.695923
910.131	17.6822
913.506	22.8924
916.881	70.4056
920.256	102.774
923.63	105.439
927.005	162.339
930.38	264.518
933.755	427.382
937.13	481.727
940.505	736.86
943.879	997.859
947.254	1374.05
950.629	1699.3
954.004	1882.48
957.379	1708.83
960.754	1394.5
964.128	983.798
967.503	686.966
970.878	426.968
974.253	283.264
977.628	189.539
981.002	169.693
984.377	132.961
987.752	165.791
991.127	222.379
994.502	279.994
997.876	372.918
1001.25	438.808
1004.63	437.815
1008	406.333
1011.38	330.618
1014.75	204.325
1018.12	122.924
1021.5	116.225
1024.88	72.7765
1028.25	18.403
1031.62	17.2073
1035	7.7056
1038.37	10.378
1041.75	4.01773
1045.12	3.76007
1048.5	18.4315
1051.87	35.7265
1055.25	0.335449
1058.62	27.919
1062	50.2891
1065.37	25.7196
1068.75	76.7771
1072.12	71.5872
1075.5	79.5038
1078.87	66.1865
1082.25	55.0399
1085.62	93.114
1089	61.3299
1092.37	53.3982
1095.75	76.4693
1099.12	22.6155
1102.5	36.4097
1105.87	19.4387
1109.24	3.34587
1112.62	21.104
1115.99	2.00442
1119.37	22.7815
1122.74	14.4474
1126.12	15.3017
1129.49	16.3167
1132.87	19.008
1136.24	35.4523
1139.62	42.2911
1142.99	49.3058
1146.37	28.809
1149.74	58.9273
1153.12	43.1968
1156.49	45.5361
1159.87	24.8816
1163.24	27.3292
1166.62	43.4891
1169.99	10.454
1173.37	64.9737
1176.74	21.8
1180.12	29.7727
1183.49	39.1676
1186.87	35.6229
1190.24	26.261
1193.62	47.9646
1196.99	10.3708
1200.37	27.1851
1203.74	55.7817
1207.12	6.51982
1210.49	35.5723
1213.87	34.8768
1217.24	12.318
1220.61	50.5039
1223.99	47.5547
1227.36	24.5745
1230.74	15.0176
1234.11	27.4405
1237.49	24.516
1240.86	30.7163
1244.24	42.3969
1247.61	34.3384
1250.99	10.7794
1254.36	3.30414
1257.74	24.7996
1261.11	20.2101
1264.49	45.089
1267.86	50.6553
1271.24	55.8687
1274.61	13.5398
1277.99	34.7374
1281.36	8.60286
1284.74	4.71568
