Measurement: Raman, 532 nm, unoriented, Raman Data Processed
Mineral: Vergasovaite
Rruff sample: R061141
Ideal chemistry: Cu_3_O(MoO_4_)(SO_4_)
Locality: Tolbachik Volcano, Kamchatka, Russia
Source: Michael Scott
Description: Dark green prismatic, co-type material, associated with apple green euchlorine
Measured chemistry: (Cu_2.97_Zn_0.03_)_Σ=3_O(Mo_0.98_S_0.02_)_Σ=1_O_4_(S_1.00_O_4_); trace amounts of Fe
Raman shift (cm-1)	intensity
131.868	0
134.761	257.007
137.653	956.652
140.546	1431.38
143.439	2259.41
146.331	2684.98
149.224	3053.48
152.117	3118.74
155.01	2608.14
157.902	1579.68
160.795	737.197
163.688	147.366
166.58	54.7178
169.473	98.043
172.366	10.3804
175.258	1.39307
178.151	139.896
181.044	238.565
183.936	344.727
186.829	519.279
189.722	662.188
192.615	626.661
195.507	838.846
198.4	521.099
201.293	407.644
204.185	281.032
207.078	90.5767
209.971	84.4658
212.863	110.569
215.756	296.567
218.649	569.634
221.542	899.301
224.434	1342.85
227.327	1795.19
230.22	2135.63
233.112	2380.68
236.005	2576.12
238.898	2469.56
241.79	2064.36
244.683	1695.54
247.576	1131.39
250.469	695.32
253.361	434.245
256.254	136.446
259.147	12.9434
262.039	2.21191
264.932	31.2905
267.825	22.3076
270.717	66.2109
273.61	35.1528
276.503	32.9619
279.396	41.1675
282.288	54.4448
285.181	30.6602
288.074	104.872
290.966	443.52
293.859	645.163
296.752	768.124
299.644	1155.52
302.537	1871.14
305.43	2583.54
308.322	3301.11
311.215	4352.21
314.108	5625.06
317.001	6064.46
319.893	4779.12
322.786	3435.75
325.679	2886
328.571	2704.63
331.464	2901.85
334.357	3161.48
337.25	3494.27
340.142	3700.99
343.035	3830.92
345.928	4203.76
348.82	4648.09
351.713	5140.14
354.606	5836.96
357.498	6608.68
360.391	6808.47
363.284	6528.15
366.176	6102.44
369.069	5784.59
371.962	5547.8
374.854	4936.21
377.747	4063.41
380.64	3169.7
383.533	2490.46
386.425	1962.31
389.318	1688.29
392.211	1438.9
395.103	1167.92
397.996	813.94
400.889	547.332
403.781	272.91
406.674	80.2395
409.567	38.5115
412.46	146.126
415.352	113.927
418.245	101.825
421.138	3.9397
424.03	68.7932
426.923	253.318
429.816	405.583
432.709	619.246
435.601	750.268
438.494	760.393
441.387	347.391
444.279	57.3838
447.172	12.5017
450.065	70.8481
452.957	161.713
455.85	336.301
458.743	504.017
461.635	658.077
464.528	871.194
467.421	996.604
470.313	945.934
473.206	766.927
476.099	596.704
478.992	547.135
481.884	516.522
484.777	629.524
487.67	807.463
490.562	1077.01
493.455	1339.03
496.348	1747.17
499.24	2292.82
502.133	2836.37
505.026	3384.29
507.919	3983.56
510.811	4595.11
513.704	5096.91
516.597	5372.54
519.489	5558.99
522.382	5462.34
525.275	5101.64
528.168	4387.36
531.06	3499
533.953	2542.08
536.846	1883.74
539.738	1328.94
542.631	869.615
545.524	677.766
548.416	429.703
551.309	311.37
554.202	215.613
557.095	93.926
559.987	82.7998
562.88	16.9188
565.773	14.1345
568.665	74.7998
571.558	56.2382
574.451	45.2217
577.343	28.6604
580.236	65.6377
583.129	86.8434
586.021	165.572
588.914	240.448
591.807	303.804
594.699	362.459
597.592	332.502
600.485	360.571
603.378	319.483
606.27	350.22
609.163	456.575
612.056	623.102
614.948	816.004
617.841	1117.02
620.734	1489.32
623.626	1807.78
626.519	1884.57
629.412	2099.49
632.305	2331.61
635.197	2418.12
638.09	2106.67
640.983	1295.56
643.875	790.905
646.768	495.343
649.661	341.882
652.553	244.489
655.446	226.162
658.339	160.748
661.232	174.613
664.124	169.328
667.017	159.9
669.91	145.088
672.802	134.876
675.695	142.242
678.588	136.167
681.481	107.677
684.373	112.117
687.266	106.328
690.159	90.0909
693.051	88.5378
695.944	82.8942
698.837	94.6035
701.729	80.1954
704.622	0.231079
707.515	14.4006
710.407	40.1973
713.3	6.37561
716.193	28.2477
719.086	10.8722
721.978	7.93176
724.871	5.30701
727.764	1.66638
730.656	36.1185
733.549	17.8297
736.442	11.3523
739.334	17.4521
742.227	10.3694
745.12	15.6703
748.013	35.0265
750.905	28.4584
753.798	65.2654
756.691	48.1261
759.583	4.34399
762.476	68.78
765.369	108.862
768.261	207.275
771.154	406.073
774.047	595.196
776.939	949.255
779.832	1329.58
782.725	1758.2
785.618	2288.89
788.51	2599.67
791.403	2836.13
794.296	2680.66
797.188	2352.07
800.081	1972.24
802.974	1492.92
805.866	1304.02
808.759	1324.99
811.652	1558.71
814.545	1903.63
817.437	2477.83
820.33	3486.76
823.223	4766.79
826.115	6543.06
829.008	8988.32
831.901	11626.5
834.793	14322.2
837.686	16454.5
840.579	16990.7
843.471	15185.3
846.364	11697.8
849.257	8325.14
852.15	6079.64
855.042	5009.84
857.935	4612.74
860.828	4679.16
863.72	4986.43
866.613	4913.16
869.506	4140.82
872.399	3005.75
875.291	1991.08
878.184	1288.27
881.077	755.152
883.969	403.253
886.862	195.55
889.755	79.0549
892.647	38.5469
895.54	96.9011
898.433	109.945
901.325	102.847
904.218	138.937
907.111	75.5757
910.004	56.2219
912.896	55.9312
915.789	249.649
918.682	491.847
921.574	873.899
924.467	1322.53
927.36	2041.48
930.252	3131.76
933.145	4733.85
936.038	6989.64
938.931	10351.4
941.823	15669
944.716	23365.7
947.609	31574.3
950.501	39585.3
953.394	46170.4
956.287	45500.2
959.179	35659.7
962.072	24013.4
964.965	15431
967.857	9874.18
970.75	6224.17
973.643	4160.83
976.536	2937.24
979.428	2187.03
982.321	1885.87
985.214	1922.44
988.106	2288.17
990.999	2997.76
993.892	4228.93
996.784	5942.18
999.677	8206.66
1002.57	10525.7
1005.46	12499.6
1008.36	13244.3
1011.25	11325.2
1014.14	7993.81
1017.03	4962.08
1019.93	2987.7
1022.82	1645.04
1025.71	958.693
1028.6	440.531
1031.5	75.4067
1034.39	66.6309
1037.28	107.332
1040.17	133.038
1043.07	67.9739
1045.96	20.3242
1048.85	117.272
1051.75	277.948
1054.64	476.644
1057.53	715.112
1060.42	1066.19
1063.32	1539.26
1066.21	2086.51
1069.1	2716.63
1071.99	3359.54
1074.89	3844.93
1077.78	4237.45
1080.67	4284.45
1083.57	3946.74
1086.46	3402.21
1089.35	2711.48
1092.24	1983.02
1095.14	1407.01
1098.03	956.817
1100.92	703.382
1103.81	393.647
1106.71	325.789
1109.6	170.109
1112.49	73.0493
1115.38	68.915
1118.28	2.48914
1121.17	2.05457
1124.06	2.76562
1126.96	35.8192
1129.85	36.7731
1132.74	17.1982
1135.63	1.70654
1138.53	7.39441
1141.42	46.7496
1144.31	67.0241
1147.2	97.9042
1150.1	120.332
1152.99	185.117
1155.88	244.895
1158.78	297.199
1161.67	378.704
1164.56	486.076
1167.45	478.663
1170.35	489.565
1173.24	472.934
1176.13	398.823
1179.02	333.004
1181.92	283.686
1184.81	268.165
1187.7	192.073
1190.6	129.064
1193.49	98.3546
1196.38	114.067
1199.27	80.0378
1202.17	70.371
1205.06	83.153
1207.95	90.4743
1210.84	105.541
1213.74	66.4951
1216.63	58.7092
1219.52	12.3666
1222.41	23.7075
1225.31	11.6064
1228.2	2.27484
1231.09	9.83179
1233.99	38.0155
1236.88	53.8424
1239.77	80.6976
1242.66	82.4814
1245.56	86.4005
1248.45	96.1993
1251.34	72.7708
1254.23	41.4742
1257.13	8.27179
1260.02	21.1616
1262.91	25.2673
1265.81	0.046875
1268.7	22.6083
1271.59	2.8255
1274.48	3.2027
1277.38	17.9061
