Measurement: Raman, 532 nm, unoriented, Raman Data Processed
Mineral: Vermiculite
Rruff sample: R050490
Ideal chemistry: Mg_0.7_(Mg,Fe^3+^,Al)_6_(Si,Al)_8_O_20_(OH)_4_8H_2_O
Locality: near Tonopah, Nevada, USA
Source: California Institute of Technology
Description: Dark green micaceous fragment
Measured chemistry: (Mg_2.26_Fe^3+^_0.25_Al_0.25_Ca_0.24_)_Σ=3_(Si_3.50_Al_0.50_)_Σ=4_O_10_((OH)_1.90_F_0.10_)_Σ=2_·4H_2_O
Raman shift (cm-1)	intensity
140.666	0
144.041	5.73926
147.416	14.8226
150.79	20.8216
154.165	34.6252
157.54	40.3854
160.915	47.3291
164.29	58.6476
167.664	66.7294
171.039	80.3729
174.414	91.5798
177.789	104.008
181.164	113.325
184.538	114.99
187.913	114.499
191.288	108.92
194.663	98.9851
198.038	81.298
201.412	66.0477
204.787	46.9686
208.162	34.1426
211.537	18.1836
214.912	10.6252
218.287	9.63007
221.661	3.91992
225.036	3.21356
228.411	1.2085
231.786	2.01428
235.161	2.0293
238.536	1.80664
241.91	2.03674
245.285	2.16602
248.66	0.72229
252.035	4.16156
255.41	10.4464
258.784	16.2105
262.159	23.2728
265.534	29.731
268.909	38.1192
272.284	43.1218
275.659	40.409
279.033	37.2878
282.408	32.6421
285.783	24.3662
289.158	15.6519
292.533	12.9211
295.907	6.72302
299.282	1.61658
302.657	0.501465
306.032	2.20349
309.407	0.218811
312.781	5.06915
316.156	6.25073
319.531	11.7651
322.906	15.9312
326.281	23.4096
329.656	32.5723
333.03	41.4053
336.405	57.0607
339.78	73.0335
343.155	91.8392
346.53	116.442
349.904	134.066
353.279	146.554
356.654	144.398
360.029	128.827
363.404	101.442
366.779	75.505
370.153	52.5691
373.528	38.1789
376.903	31.7996
380.278	21.6108
383.653	16.2333
387.027	14.7501
390.402	11.0905
393.777	8.04083
397.152	4.59717
400.527	4.12262
403.901	1.46771
407.276	6.3739
410.651	9.12176
414.026	15.7601
417.401	18.7827
420.776	31.3815
424.15	37.1567
427.525	42.3821
430.9	49.8404
434.275	44.7778
437.65	43.3375
441.024	33.4087
444.399	30.1642
447.774	20.1707
451.149	12.0895
454.524	6.83044
457.899	2.13562
461.273	3.3916
464.648	3.99341
468.023	1.92133
471.398	0.832153
474.773	4.02417
478.147	3.9812
481.522	1.11792
484.897	2.66376
488.272	4.37622
491.647	8.80823
495.022	16.5605
498.396	21.4947
501.771	26.0007
505.146	33.6994
508.521	45.3417
511.896	58.2111
515.27	70.5536
518.645	85.6827
522.02	107.656
525.395	131.614
528.77	156.289
532.145	167.555
535.519	176.581
538.894	178.963
542.269	181.236
545.644	178.351
549.019	170.672
552.394	153.027
555.768	138.862
559.143	121.814
562.518	105.826
565.893	86.3795
569.268	70.4434
572.642	51.5643
576.017	31.7401
579.392	22.7288
582.767	13.6239
586.142	5.39478
589.516	0.819397
592.891	0.212219
596.266	2.00427
599.641	1.80902
603.016	2.7735
606.39	3.539
609.765	3.20386
613.14	3.38385
616.515	0.755188
619.89	0.905273
623.265	1.99933
626.639	2.49548
630.014	3.46997
633.389	8.89166
636.764	14.2797
640.139	19.4628
643.514	30.6102
646.888	45.7325
650.263	61.3867
653.638	86.0926
657.013	115.101
660.388	141.11
663.762	168.125
667.137	191.575
670.512	207.67
673.887	211.312
677.262	209.375
680.636	191.385
684.011	169.574
687.386	145.672
690.761	119.819
694.136	96.8289
697.511	78.0449
700.885	55.7825
704.26	44.0735
707.635	34.4248
711.01	26.847
714.385	17.9589
717.76	10.6305
721.134	6.36047
724.509	3.84601
727.884	1.53973
731.259	1.92761
734.634	2.28931
738.008	0.170227
741.383	1.43024
744.758	2.27771
748.133	6.34302
751.508	6.34357
754.882	5.68365
758.257	5.76086
761.632	5.6637
765.007	7.60181
768.382	7.4596
771.756	7.66345
775.131	6.24719
778.506	7.94183
781.881	7.57397
785.256	3.8573
788.631	0.318054
792.005	2.54797
795.38	0.600708
798.755	0.032837
802.13	0.588379
805.505	2.1488
808.88	0.619995
812.254	0.417419
815.629	1.03815
819.004	0.803894
822.379	1.73377
825.754	1.46515
829.128	0.75116
832.503	2.34204
835.878	2.37543
839.253	4.95166
842.628	7.40106
846.003	5.09808
849.377	3.99841
852.752	4.29517
856.127	6.48584
859.502	4.87506
862.877	5.23285
866.251	7.66199
869.626	5.90497
873.001	8.28119
876.376	9.22968
879.751	8.77466
883.125	7.89654
886.5	7.75934
889.875	9.2168
893.25	9.49335
896.625	8.57507
900	8.93372
903.374	9.0835
906.749	11.2867
910.124	8.13068
913.499	9.63953
916.874	8.31403
920.249	7.71027
923.623	7.28662
926.998	7.2497
930.373	2.6676
933.748	2.23279
937.123	3.71057
940.497	4.34692
943.872	0.516968
947.247	1.59631
950.622	0.108887
953.997	0.88031
957.371	0.582458
960.746	3.1358
964.121	0.857544
967.496	1.18018
970.871	2.60785
974.245	3.15198
977.62	4.19189
980.995	6.29022
984.37	4.82636
987.745	4.53955
991.12	2.60608
994.494	4.11261
997.869	3.67615
1001.24	9.78265
1004.62	4.96051
1007.99	9.71387
1011.37	9.56366
1014.74	8.33258
1018.12	9.39966
1021.49	10.6703
1024.87	14.3186
1028.24	15.3513
1031.62	9.20447
1034.99	12.7054
1038.37	14.732
1041.74	18.0372
1045.12	19.6224
1048.49	21.8492
1051.87	23.7002
1055.24	25.686
1058.62	27.6548
1061.99	30.9688
1065.37	35.3623
1068.74	35.3712
1072.12	38.2949
1075.49	40.1265
1078.87	40.408
1082.24	37.8539
1085.62	35.261
1088.99	29.0497
1092.36	26.7697
1095.74	24.2239
1099.11	20.5673
1102.49	17.746
1105.86	15.5048
1109.24	7.36945
1112.61	6.14557
1115.99	2.56763
1119.36	1.70703
1122.74	1.90808
1126.11	2.2995
1129.49	2.13995
1132.86	0.736633
1136.24	4.08807
1139.61	1.56531
1142.99	0.124512
1146.36	0.315674
1149.74	2.89087
1153.11	0.790039
1156.49	0.766907
1159.86	2.01392
1163.23	2.05695
1166.61	4.15424
1169.98	1.63184
1173.36	0.849731
1176.73	4.11957
1180.11	4.84949
1183.48	0.972107
1186.86	1.82532
1190.23	2.61652
1193.61	7.90039
1196.98	4.63263
1200.36	7.73553
1203.73	5.4574
1207.11	5.34033
1210.48	5.89307
1213.86	5.70276
1217.23	8.24298
1220.61	8.14716
1223.98	7.70929
1227.36	5.29321
1230.73	5.88763
1234.11	4.37213
1237.48	5.13336
1240.86	4.00275
1244.23	3.57269
1247.61	2.85101
1250.98	5.04242
1254.36	0.822083
1257.73	1.99121
1261.11	3.37384
1264.48	2.1911
1267.86	0.659912
1271.23	1.96698
1274.6	3.20947
1277.98	3.49597
1281.35	2.74213
1284.73	3.57452
1288.1	0.839294
1291.48	4.43341
1294.85	0.667725
1298.23	2.33167
1301.6	0.264954
