Measurement: Raman, 785 nm, unoriented, Raman Data Processed
Mineral: Vertumnite
Rruff sample: R070063
Ideal chemistry: Ca_4_Al_4_Si_4_O_6_(OH)_24_3H_2_O
Locality: Ettringer, Bellerberg Mt, Eifel mountains, Germany
Source: Bob Jenkins
Description: Rosettes of colorless platy crystals
Raman shift (cm-1)	intensity
155.54	0
158.433	64.0195
161.326	35.817
164.218	3.64294
167.111	39.4645
170.004	124.97
172.897	112.837
175.789	154.533
178.682	176.287
181.575	232.262
184.467	318.772
187.36	373.094
190.253	444.271
193.145	479.859
196.038	540.685
198.931	546.929
201.823	592.342
204.716	626.918
207.609	679.024
210.502	701.669
213.394	752.056
216.287	868.96
219.18	928.822
222.072	939.919
224.965	826.512
227.858	698.792
230.75	580.391
233.643	467.142
236.536	413.595
239.429	353.095
242.321	339.618
245.214	301.525
248.107	248.908
250.999	237.852
253.892	184.664
256.785	226.211
259.678	199.572
262.57	184.904
265.463	164.711
268.356	76.3438
271.248	24.6118
274.141	27.6558
277.034	11.6278
279.926	29.7512
282.819	2.84021
285.712	27.0591
288.604	6.8822
291.497	32.1776
294.39	83.1844
297.283	81.3286
300.175	49.2231
303.068	93.2686
305.961	88.4021
308.853	123.033
311.746	92.9083
314.639	106.276
317.531	98.027
320.424	94.1632
323.317	72.6209
326.21	49.1439
329.102	50.4821
331.995	40.266
334.888	50.2805
337.78	0.862427
340.673	15.6805
343.566	0.446655
346.459	9.52795
349.351	37.0967
352.244	74.6718
355.137	67.1818
358.029	164.905
360.922	250.507
363.815	311.215
366.707	399.03
369.6	450.291
372.493	554.568
375.385	603.784
378.278	700.117
381.171	859.473
384.064	922.222
386.956	1002.45
389.849	1053.09
392.742	1131.37
395.634	1053.19
398.527	945.754
401.42	828.288
404.312	722.406
407.205	595.65
410.098	497.646
412.99	450.253
415.883	343.754
418.776	317.869
421.669	215.987
424.561	183.623
427.454	154.379
430.347	68.8317
433.239	42.5631
436.132	20.2258
439.025	33.8904
441.918	24.3501
444.81	42.4228
447.703	42.0475
450.596	64.0338
453.488	78.1018
456.381	90.3728
459.274	109.948
462.166	147.797
465.059	199.938
467.952	203.733
470.844	220.623
473.737	197.245
476.63	161.97
479.523	110.869
482.415	35.3993
485.308	29.8591
488.201	14.0645
491.093	31.5115
493.986	29.8442
496.879	24.955
499.772	39.453
502.664	99.1689
505.557	169.782
508.45	329.022
511.342	545.009
514.235	860.126
517.128	1318.4
520.02	1793.61
522.913	2482.34
525.806	3268.91
528.698	3963.61
531.591	4175.91
534.484	3602.51
537.377	2572.24
540.269	1646.41
543.162	991.394
546.055	648.611
548.947	378.282
551.84	209.829
554.733	150.653
557.625	80.2303
560.518	58.919
563.411	31.9349
566.304	29.7524
569.196	21.3308
572.089	11.593
574.982	28.4641
577.874	27.9563
580.767	33.6083
583.66	52.6511
586.553	33.4626
589.445	19.6385
592.338	33.8585
595.231	21.2287
598.123	4.74799
601.016	8.0614
603.909	4.84051
606.801	15.4702
609.694	0.957642
612.587	11.7648
615.48	0.298401
618.372	27.7156
621.265	11.0373
624.158	23.2195
627.05	17.9934
629.943	3.91065
632.836	27.9326
635.728	0.70752
638.621	26.4462
641.514	23.8189
644.407	37.5112
647.299	32.57
650.192	24.1469
653.085	31.2242
655.977	45.9113
658.87	52.7704
661.763	65.6204
664.655	53.3503
667.548	62.7504
670.441	56.7099
673.333	53.3682
676.226	51.7864
679.119	53.5971
682.012	49.8799
684.904	65.3352
687.797	77.2789
690.69	70.9745
693.582	78.4908
696.475	96.1032
699.368	117.251
702.26	105.325
705.153	101.645
708.046	116.951
710.939	133.166
713.831	143.495
716.724	120.717
719.617	146.962
722.509	148.205
725.402	138.889
728.295	116.117
731.188	96.2972
734.08	97.5219
736.973	79.7003
739.866	67.1824
742.758	65.6752
745.651	59.8043
748.544	42.2437
751.436	31.7545
754.329	12.4237
757.222	16.9978
760.114	12.6929
763.007	6.80243
765.9	4.25617
768.793	0.697021
771.685	12.5748
774.578	10.7582
777.471	0.203369
780.363	3.00183
783.256	1.71332
786.149	2.55243
789.041	1.64709
791.934	13.8268
794.827	13.5332
797.72	30.5976
800.612	24.8978
803.505	30.0056
806.398	55.0059
809.29	80.6486
812.183	79.88
815.076	94.69
817.968	127.138
820.861	135.159
823.754	177.057
826.646	190.081
829.539	253.775
832.432	257.787
835.325	303.486
838.217	326.823
841.11	399.085
844.003	430.782
846.895	457.297
849.788	494.877
852.681	541.333
855.573	547.273
858.466	592.134
861.359	577.363
864.252	599.35
867.144	569.48
870.037	506.617
872.93	489.985
875.822	397.852
878.715	325.057
881.608	266.467
884.5	195.93
887.393	151.07
890.286	86.2239
893.179	77.7094
896.071	39.3455
898.964	26.112
901.857	7.18866
904.75	5.15283
907.642	12.4316
910.535	0.426514
913.428	15.5195
916.32	13.5928
919.213	11.9582
922.106	7.92944
924.998	14.2428
927.891	3.90369
930.784	13.83
933.677	33.5266
936.569	2.13641
939.462	20.5067
942.355	16.5024
945.247	8.91949
948.14	19.6252
951.033	14.2596
953.925	15.5356
956.818	38.5236
959.711	45.5283
962.603	51.5359
965.496	70.7462
968.389	84.9407
971.282	106.541
974.174	144.462
977.067	155.96
979.96	161.034
982.852	184.814
985.745	169.319
988.638	176.113
991.53	183.434
994.423	162.466
997.316	156.04
1000.21	121.746
1003.1	104.264
1005.99	95.3781
1008.89	87.6448
1011.78	54.2181
1014.67	29.4248
1017.57	46.312
1020.46	26.9388
1023.35	31.1119
1026.24	17.1228
1029.13	13.8994
1032.03	15.3969
1034.92	8.00256
1037.81	2.93198
1040.71	16.0072
1043.6	20.9404
1046.49	20.037
1049.38	36.3041
1052.28	31.8873
1055.17	17.1293
1058.06	22.2738
1060.95	1.87106
1063.85	6.65771
1066.74	0.78302
1069.63	0.780701
1072.53	9.8136
1075.42	18.0297
1078.31	2.15341
1081.2	2.78885
1084.1	18.1376
1086.99	20.6527
1089.88	4.04224
1092.78	24.9886
1095.67	7.92996
1098.56	12.7046
1101.45	7.3378
1104.35	13.1894
1107.24	3.32053
1110.13	9.1427
1113.02	34.8696
1115.92	5.8909
1118.81	14.7639
1121.7	16.1906
1124.6	7.32013
1127.49	12.4818
1130.38	13.0629
1133.27	40.381
1136.16	10.2174
1139.06	14.9576
1141.95	9.18268
1144.84	0.421326
1147.74	7.14056
1150.63	17.5319
1153.52	1.14163
1156.41	1.64935
1159.31	5.23489
1162.2	17.6717
1165.09	19.2025
1167.98	5.66049
1170.88	7.3165
1173.77	10.7077
1176.66	16.5859
1179.56	8.00189
1182.45	12.0854
1185.34	12.8867
1188.23	7.93994
1191.13	14.7795
1194.02	19.477
1196.91	1.41132
1199.81	21.7511
1202.7	18.3459
1205.59	0.383301
1208.48	13.1273
1211.38	12.272
1214.27	15.1658
1217.16	22.8984
1220.05	24.9547
1222.95	15.5065
1225.84	7.73651
1228.73	15.9016
1231.62	17.3596
1234.52	1.44028
