Measurement: Raman, 532 nm, unoriented, Raman Data Processed
Mineral: Vertumnite
Rruff sample: R070063
Ideal chemistry: Ca_4_Al_4_Si_4_O_6_(OH)_24_3H_2_O
Locality: Ettringer, Bellerberg Mt, Eifel mountains, Germany
Source: Bob Jenkins
Description: Rosettes of colorless platy crystals
Raman shift (cm-1)	intensity
155.003	0
157.895	51.0088
160.788	28.2827
163.681	58.2334
166.573	8.11328
169.466	1.90283
172.359	38.6357
175.252	15.2803
178.144	89.5317
181.037	115.069
183.93	250.658
186.822	332.111
189.715	402.162
192.608	406.943
195.5	439.498
198.393	507.518
201.286	561.145
204.179	659.895
207.071	699.228
209.964	867.032
212.857	1154.43
215.749	1435.71
218.642	1767.04
221.535	1943.98
224.428	1960.39
227.32	1895.39
230.213	1771.85
233.106	1806.83
235.998	1620.25
238.891	1558.25
241.784	1505.48
244.676	1294.16
247.569	1119.23
250.462	964.197
253.355	740.36
256.247	581.998
259.14	514.994
262.033	335.323
264.925	191.069
267.818	55.3818
270.711	40.083
273.603	6.87451
276.496	86.1148
279.389	74.313
282.281	15.9878
285.174	16.0942
288.067	71.0439
290.959	185.447
293.852	163.195
296.745	227.36
299.638	371.359
302.53	313.505
305.423	392.607
308.316	358.964
311.208	413.943
314.101	365.463
316.994	346.425
319.887	339.572
322.779	370.935
325.672	327.432
328.565	355.073
331.457	322.4
334.35	292.594
337.243	165.66
340.135	219.494
343.028	154.318
345.921	134.087
348.813	53.9434
351.706	16.2734
354.599	5.52051
357.492	83.8472
360.384	264.297
363.277	430.837
366.17	585.166
369.062	800.181
371.955	1110.54
374.848	1508.84
377.74	1892.68
380.633	2397.47
383.526	2841.56
386.418	3241.57
389.311	3642.71
392.204	3868.26
395.097	3938.91
397.989	3912.87
400.882	4008.16
403.775	4042.91
406.667	3987.65
409.56	3795.95
412.453	3343.6
415.346	2812.69
418.238	2297.07
421.131	1830.77
424.024	1348.22
426.916	956.285
429.809	693.241
432.702	451.715
435.594	351.062
438.487	293.85
441.38	210.579
444.272	206.731
447.165	211.647
450.058	176.144
452.951	167.417
455.843	214.501
458.736	188.042
461.629	221.697
464.521	263.805
467.414	298.737
470.307	246.56
473.2	267.207
476.092	144.64
478.985	100.642
481.878	27.8223
484.77	72.1255
487.663	111.79
490.556	25.0723
493.448	42.4648
496.341	19.6377
499.234	131.471
502.127	337.799
505.019	610.005
507.912	1042.49
510.805	1654.65
513.697	2497.2
516.59	3630.76
519.483	5775.31
522.375	7533.6
525.268	9672.55
528.161	12060.3
531.053	13152.7
533.946	11810.8
536.839	8570.69
539.731	5524.65
542.624	3420.13
545.517	2105.79
548.41	1325.83
551.302	820.926
554.195	514.229
557.088	315.692
559.98	181.815
562.873	142.567
565.766	119.277
568.659	112.152
571.551	177.331
574.444	195.609
577.337	169.401
580.229	173.035
583.122	150.59
586.015	145.155
588.907	168.982
591.8	82.6018
594.693	89.8594
597.585	72.199
600.478	52.165
603.371	40.3506
606.264	14.2644
609.156	14.9575
612.049	18.4221
614.942	32.3728
617.834	32.5071
620.727	27.2564
623.62	44.9956
626.513	28.3308
629.405	1.0398
632.298	3.04297
635.191	71.1453
638.083	45.5576
640.976	81.0723
643.869	91.7095
646.761	93.833
649.654	114.638
652.547	128.058
655.439	161.94
658.332	198.488
661.225	221.57
664.117	269.056
667.01	317.525
669.903	267.587
672.796	326.146
675.688	315.163
678.581	256.051
681.474	260.72
684.366	239.524
687.259	267.569
690.152	251.775
693.044	307.114
695.937	300.417
698.83	388.099
701.723	422.096
704.615	372.569
707.508	440.972
710.401	474.771
713.293	467.221
716.186	413.62
719.079	453.331
721.971	417.221
724.864	358.798
727.757	348.096
730.649	295.973
733.542	222.265
736.435	233.577
739.328	203.224
742.22	156.167
745.113	130.746
748.006	116.129
750.898	63.2454
753.791	69.9319
756.684	45.6292
759.577	46.2017
762.469	17.5984
765.362	36.4421
768.255	25.977
771.147	2.25781
774.04	7.59351
776.933	19.1834
779.825	29.7349
782.718	6.69946
785.611	0.325928
788.504	37.4497
791.396	43.6921
794.289	94.1687
797.182	94.7742
800.074	71.1235
802.967	163.1
805.86	155.43
808.752	207.295
811.645	290.253
814.538	333.542
817.431	405.002
820.323	487.322
823.216	528.063
826.109	618.056
829.001	716.935
831.894	882.834
834.787	934.201
837.679	1023.54
840.572	1196.53
843.465	1329.05
846.357	1479.56
849.25	1576.96
852.143	1678.22
855.036	1769.24
857.928	1846.8
860.821	1881.51
863.714	1838.28
866.606	1831.73
869.499	1705.04
872.392	1563.52
875.284	1411.19
878.177	1154.09
881.07	984.033
883.962	753.292
886.855	585.299
889.748	473.725
892.641	280.081
895.533	240.279
898.426	147.779
901.319	108.337
904.211	78.4248
907.104	16.3232
909.997	14.7478
912.889	26.8074
915.782	15.4966
918.675	15.469
921.568	14.5962
924.46	23.6089
927.353	2.73975
930.246	22.6545
933.138	37.7012
936.031	21.2671
938.924	52.0156
941.817	0.934814
944.709	12.2707
947.602	3.07959
950.495	46.5957
953.387	35.1755
956.28	62.4626
959.173	85.3323
962.065	108.057
964.958	146.794
967.851	178.448
970.744	212.497
973.636	208.294
976.529	288.716
979.422	338.3
982.314	341.944
985.207	339.323
988.1	329.204
990.992	290.236
993.885	275.969
996.778	251.794
999.67	250.252
1002.56	173.043
1005.46	139.642
1008.35	129.004
1011.24	77.2729
1014.13	92.3855
1017.03	35.9634
1019.92	50.5684
1022.81	49.7405
1025.7	23.7976
1028.6	32.0801
1031.49	96.4539
1034.38	108.466
1037.28	142.527
1040.17	225.107
1043.06	195.91
1045.95	251.284
1048.85	310.931
1051.74	297.096
1054.63	325.033
1057.52	326.815
1060.42	329.011
1063.31	316.171
1066.2	293.171
1069.1	346.503
1071.99	241.35
1074.88	176.087
1077.77	224.784
1080.67	210.021
1083.56	202.102
1086.45	86.3762
1089.34	130.941
1092.24	88.3162
1095.13	64.719
1098.02	74.3337
1100.91	58.3833
1103.81	84.9104
1106.7	23.2363
1109.59	18.0046
1112.49	29.1448
1115.38	17.2834
1118.27	9.70093
1121.16	13.7441
1124.06	39.6167
1126.95	6.82056
1129.84	61.0298
1132.73	27.6565
1135.63	22.8748
1138.52	31.7148
1141.41	54.3123
1144.31	36.625
1147.2	37.9353
1150.09	25.7976
1152.98	49.4941
1155.88	44.2678
1158.77	53.9265
1161.66	29.1816
1164.55	3.74951
1167.45	43.8525
1170.34	22.3201
1173.23	5.53052
1176.12	38.8391
1179.02	31.7764
1181.91	20.9434
1184.8	36.1128
1187.7	36.1013
1190.59	77.6585
1193.48	42.2932
1196.37	55.6592
1199.27	0.003906
1202.16	43.3066
1205.05	59.4392
1207.94	16.2478
1210.84	72.3784
1213.73	83.217
1216.62	44.5938
1219.52	35.2937
1222.41	52.9971
1225.3	64.6687
1228.19	36.5159
1231.09	50.4805
1233.98	42.875
1236.87	13.7744
1239.76	39.6721
1242.66	36.6467
1245.55	4.78442
1248.44	44.1775
1251.34	32.3245
1254.23	8.68433
1257.12	72.8752
1260.01	33.4209
1262.91	11.1812
1265.8	18.6216
1268.69	34.6587
1271.58	46.637
1274.48	46.0818
1277.37	8.6604
1280.26	30.9221
1283.15	48.0657
1286.05	39.7905
1288.94	30.4702
1291.83	15.8115
1294.73	0.177734
1297.62	21.7717
1300.51	0
