Measurement: Raman, 785 nm, unoriented, Raman Data Processed
Mineral: Vesuvianite
Rruff sample: R050056
Ideal chemistry: (Ca,Na)_19_(Al,Mg,Fe)_13_(SiO_4_)_10_(Si_2_O_7_)_4_(OH,F,O)_10_
Locality: Jeffrey Quarry, Asbestos, Quebec, Canada
Source: Tony Gordian
Description: Green prismatic single crystal
Measured chemistry: Ca_19_(Al_.804_Mg_.149_Fe_.045_Mn_.002_)_13_Si_18_O_68_(OH)_10_
Raman shift (cm-1)	intensity
148.018	0
150.911	106.342
153.803	160.368
156.696	59.3455
159.589	228.471
162.481	523.384
165.374	795.989
168.267	943.222
171.16	915.999
174.052	870.467
176.945	664.239
179.838	585.266
182.73	584.766
185.623	523.956
188.516	277.548
191.408	38.0239
194.301	-1.28704
197.194	5.07505
200.087	12.3142
202.979	95.365
205.872	150.146
208.765	289.668
211.657	413.682
214.55	439.636
217.443	494.966
220.335	591.87
223.228	718.158
226.121	854.707
229.013	849.744
231.906	703.782
234.799	450.546
237.692	290.656
240.584	152.48
243.477	20.1502
246.37	44.0386
249.262	171.512
252.155	379.057
255.048	553.267
257.941	470.454
260.833	179.274
263.726	28.8848
266.619	-4.78805
269.511	4.79952
272.404	16.0159
275.297	31.8589
278.19	131.77
281.082	178.178
283.975	374.719
286.868	538.972
289.76	498.697
292.653	372.348
295.546	256.361
298.438	206.861
301.331	209.781
304.224	348.831
307.116	404.169
310.009	325.465
312.902	337.43
315.795	383.28
318.687	456.685
321.58	523.145
324.473	589.043
327.365	800.227
330.258	991.731
333.151	1153
336.043	981.927
338.936	584.758
341.829	268.573
344.721	95.6548
347.614	95.168
350.507	169.969
353.4	310.975
356.292	451.618
359.185	591.245
362.078	650.403
364.97	701.701
367.863	691.157
370.756	713.473
373.649	707.163
376.541	677.54
379.434	691.887
382.327	735.65
385.219	884.693
388.112	1116.97
391.005	1365.71
393.897	1806.74
396.79	2345.04
399.683	2910.29
402.575	3305.94
405.468	3327.58
408.361	2991.75
411.254	2479.32
414.146	2016.13
417.039	1413.16
419.932	945.205
422.824	598.645
425.717	356.05
428.61	158.954
431.502	46.1217
434.395	12.0817
437.288	19.2207
440.181	27.9886
443.073	16.9854
445.966	49.0175
448.859	116.666
451.751	160.185
454.644	197.745
457.537	246.118
460.43	284.679
463.322	418.415
466.215	544.688
469.108	684.15
472	860.375
474.893	992.077
477.786	1072.56
480.678	1026.81
483.571	911.273
486.464	694.101
489.356	575.769
492.249	504.619
495.142	465.881
498.035	473.747
500.927	510.855
503.82	487.351
506.713	494.409
509.605	408.656
512.498	396.693
515.391	281.519
518.284	208.562
521.176	168.261
524.069	62.6603
526.962	91.2035
529.854	104.732
532.747	113.136
535.64	220.641
538.533	284.152
541.425	256.925
544.318	229.063
547.211	131.724
550.103	28.4404
552.996	19.8424
555.889	-4.47531
558.781	13.5982
561.674	15.2508
564.567	38.2783
567.459	84.3055
570.352	183.46
573.245	296.736
576.138	381.309
579.03	519.751
581.923	725.36
584.816	937.813
587.708	1088.52
590.601	1220.22
593.494	1257.29
596.386	1261.71
599.279	1239.82
602.172	1182.27
605.064	1169.85
607.957	1149.69
610.85	1029.11
613.743	948.077
616.635	974.592
619.528	1091.35
622.421	1408.46
625.313	2017.63
628.206	2903.74
631.099	4075.2
633.991	4826.44
636.884	4303.45
639.777	2894.94
642.67	1727.74
645.562	999.633
648.455	561.18
651.348	255.813
654.24	84.2786
657.133	21.2693
660.026	16.4168
662.918	-6.04192
665.811	13.8905
668.704	16.1151
671.597	42.9128
674.489	78.9075
677.382	117.636
680.275	176.092
683.167	307.77
686.06	501.526
688.953	694.118
691.846	970.607
694.738	1182.03
697.631	1076.34
700.524	744.536
703.416	467.591
706.309	260.519
709.202	147.846
712.094	81.9246
714.987	66.178
717.88	94.8572
720.773	98.2687
723.665	88.9436
726.558	126.292
729.451	108.376
732.343	110.558
735.236	108.194
738.129	107.02
741.021	125.912
743.914	130.373
746.807	139.594
749.699	146.427
752.592	154.743
755.485	134.822
758.378	101.697
761.27	82.9783
764.163	38.7858
767.056	23.331
769.948	21.131
772.841	20.8072
775.734	38.8278
778.626	19.0685
781.519	23.2013
784.412	18.4557
787.305	8.34412
790.197	54.6906
793.09	68.6785
795.983	76.3262
798.875	75.9973
801.768	78.5179
804.661	97.8832
807.553	104.917
810.446	114.442
813.339	114.296
816.232	121.945
819.124	105.241
822.017	96.2217
824.91	54.7306
827.802	69.5298
830.695	93.3423
833.588	141.746
836.481	225.458
839.373	302.165
842.266	431.312
845.159	607.872
848.051	801.933
850.944	1052.08
853.837	1239.48
856.729	1271.89
859.622	1282.28
862.515	1137.16
865.408	980.144
868.3	835.19
871.193	668.013
874.086	579.874
876.978	449.177
879.871	369.074
882.764	266.732
885.656	236.35
888.549	153.144
891.442	96.5579
894.335	9.04492
897.227	28.2827
900.12	18.4619
903.013	129.322
905.905	272.799
908.798	486.8
911.691	728.613
914.583	989.252
917.476	1308.58
920.369	1606.33
923.261	1790.18
926.154	1800.67
929.047	1640.85
931.94	1474.91
934.832	1316
937.725	1116.37
940.618	922.397
943.51	801.362
946.403	635.557
949.296	541.476
952.188	466.013
955.081	463.189
957.974	529.099
960.867	499.226
963.759	497.92
966.652	431.477
969.545	399.425
972.437	365.079
975.33	309.091
978.223	265.565
981.115	171.638
984.008	108.128
986.901	15.9773
989.794	10.9983
992.686	8.60088
995.579	5.05635
998.472	3.51469
1001.36	25.172
1004.26	71.9452
1007.15	173.994
1010.04	211.912
1012.93	236.729
1015.83	266.133
1018.72	339.961
1021.61	365.592
1024.51	434.031
1027.4	457.145
1030.29	516.176
1033.18	584.795
1036.08	589.688
1038.97	504.028
1041.86	351.07
1044.76	245.947
1047.65	176.518
1050.54	86.1239
1053.43	31.257
1056.33	2.39789
1059.22	0.571289
1062.11	1.74097
1065	18.3736
1067.9	16.4968
1070.79	44.5536
1073.68	54.3779
1076.58	49.4243
1079.47	66.6086
1082.36	50.5273
1085.25	54.0561
1088.14	70.7005
1091.04	111.329
1093.93	101.198
1096.82	107.817
1099.72	114.316
1102.61	108.842
1105.5	120.705
1108.39	130.774
1111.29	103.085
1114.18	121.721
1117.07	107.825
1119.96	72.4227
1122.86	76.1812
1125.75	74.0958
1128.64	54.2431
1131.54	74.3499
1134.43	64.1388
1137.32	66.6755
1140.21	68.5249
1143.11	44.4098
1146	57.2102
1148.89	67.6005
1151.79	48.6423
1154.68	51.1308
1157.57	52.3021
1160.46	45.0177
1163.36	53.9516
1166.25	55.8845
1169.14	46.5797
1172.03	37.6379
1174.93	41.2292
1177.82	31.1998
1180.71	32.3345
1183.6	22.2266
1186.5	16.1205
1189.39	28.5543
1192.28	25.0114
1195.17	26.6562
1198.07	18.7319
1200.96	18.5794
1203.85	8.23425
1206.75	13.8994
1209.64	6.8602
1212.53	3.41629
1215.42	34.6158
1218.32	53.5452
1221.21	13.0348
1224.1	14.6137
1226.99	7.94452
1229.89	7.32812
1232.78	16.7838
1235.67	18.2858
1238.57	12.7175
