Measurement: Raman, 514 nm, unoriented, Raman Data Processed
Mineral: Vesuvianite
Rruff sample: R050056
Ideal chemistry: (Ca,Na)_19_(Al,Mg,Fe)_13_(SiO_4_)_10_(Si_2_O_7_)_4_(OH,F,O)_10_
Locality: Jeffrey Quarry, Asbestos, Quebec, Canada
Source: Tony Gordian
Description: Green prismatic single crystal
Measured chemistry: Ca_19_(Al_.804_Mg_.149_Fe_.045_Mn_.002_)_13_Si_18_O_68_(OH)_10_
Raman shift (cm-1)	intensity
98.947	0
103.124	3.77
107.3	246.731
111.473	346.1
115.644	590.992
119.813	503.952
123.981	287.622
128.146	28.076
132.309	10.705
136.47	391.942
140.63	611.121
144.787	363.577
148.942	68.506
153.096	38.237
157.247	1026.66
161.396	3341.67
165.544	5339.39
169.689	5771.66
173.833	5668.75
177.974	5855.39
182.114	4938.15
186.251	3504.12
190.387	1727.99
194.52	562.316
198.652	193.382
202.782	415.347
206.909	1486.3
211.035	2857.19
215.159	4787.11
219.281	5355.05
223.4	3642.95
227.518	1970.79
231.634	1582.58
235.748	1304.65
239.86	1501.74
243.97	1715.24
248.079	2948.23
252.185	5648.43
256.289	8396.17
260.391	8473.66
264.492	6496.76
268.59	4746.56
272.687	4046.54
276.781	4650.74
280.874	5585.33
284.964	6812.83
289.053	8077.89
293.14	8360.1
297.225	7989.25
301.308	6807.49
305.389	5511.51
309.468	4293.16
313.545	3225.73
317.62	2598.95
321.693	2728.94
325.765	3115.21
329.834	3461.71
333.902	3728.35
337.967	4196.09
342.031	5290.86
346.093	6753.59
350.153	8929.25
354.21	11974.8
358.267	15164.3
362.321	17255.2
366.373	16030.7
370.423	13331.2
374.471	10934.5
378.518	9196.25
382.563	7542.59
386.605	6070.43
390.646	4654.72
394.685	3814.55
398.722	3703.88
402.757	4037.13
406.79	4586.2
410.821	5430.28
414.851	5088.51
418.878	3999.93
422.904	2847.04
426.927	1757.44
430.949	881.235
434.969	347.151
438.987	116.206
443.003	92.857
447.018	760.082
451.03	1243.88
455.041	1684.2
459.049	1835.19
463.056	2034.73
467.061	2933.67
471.064	4340.91
475.065	6330.44
479.064	8131.16
483.062	6927.01
487.057	4297.96
491.051	2340.99
495.043	1305.06
499.032	809.166
503.02	532.271
507.007	413.353
510.991	424.391
514.973	346.363
518.954	199.248
522.933	63.115
526.91	235.211
530.885	293.533
534.858	303.51
538.829	304.374
542.799	24.017
546.766	277.732
550.732	384.927
554.696	196.41
558.658	300.357
562.618	197.002
566.576	25.655
570.533	139.062
574.488	433.479
578.44	668.422
582.391	1193.58
586.341	1792.95
590.288	2751.54
594.233	3593.97
598.177	4617.2
602.119	5284.02
606.059	6075.93
609.997	6693.52
613.933	7297.06
617.868	8568.7
621.801	10148.4
625.731	13862.2
629.66	18347
633.588	24849.8
637.513	32878.6
641.437	39072.9
645.358	40096.5
649.278	34477.5
653.196	25711.9
657.113	16399.6
661.027	10621.7
664.94	7577.17
668.851	5670.01
672.76	5032.2
676.667	5598.77
680.572	6813.69
684.476	9813.28
688.378	12806.3
692.278	13447.7
696.176	9534.43
700.072	5421.48
703.967	2774.66
707.86	1883.81
711.751	1104.5
715.64	646.723
719.527	367.006
723.413	130.01
727.297	208.988
731.179	139.108
735.059	79.889
738.937	44.973
742.814	85.94
746.689	17.844
750.562	117.541
754.433	201.936
758.303	192.902
762.17	31.813
766.036	120.185
769.901	11.398
773.763	4.442
777.624	22.491
781.482	160.002
785.339	78.052
789.195	282.681
793.048	429.046
796.9	587.161
800.75	819.042
804.598	1128.75
808.445	1043.35
812.289	1128.77
816.132	1229.01
819.973	1608.09
823.813	1901.03
827.65	2123.83
831.486	2968.57
835.32	3765.41
839.152	4969.8
842.983	6296.83
846.812	8313.74
850.639	11001.5
854.464	13435.9
858.288	15320.6
862.11	15807.5
865.93	15058.3
869.748	14164.9
873.564	13302.4
877.379	12699
881.192	12440.6
885.004	11661.2
888.813	10536.2
892.621	9501.51
896.427	8610.5
900.232	8262.78
904.034	8286.4
907.835	8921.62
911.634	9350.49
915.432	10640.4
919.227	12768.1
923.021	15190.3
926.813	17228
930.604	17980.1
934.393	16487.5
938.18	14640.7
941.965	12355.1
945.749	10476.8
949.53	9666.84
953.311	9263.28
957.089	9387.59
960.866	9481.39
964.641	9077.5
968.414	8103.51
972.185	7340.43
975.955	7334.37
979.723	7200.77
983.49	7006.74
987.254	5448.98
991.017	4109.13
994.779	3247.74
998.538	3056.25
1002.3	2646.77
1006.05	2880.22
1009.81	2889.08
1013.56	2885.6
1017.31	2831.26
1021.06	2554.38
1024.81	2637.4
1028.55	2538.76
1032.3	2329.04
1036.04	2727.68
1039.78	3233.58
1043.52	3599.98
1047.26	3237.58
1050.99	2549.95
1054.73	1693.4
1058.46	1310.23
1062.19	933.533
1065.92	593.621
1069.65	480.838
1073.37	320.311
1077.1	354.42
1080.82	361.035
1084.54	343.773
1088.26	255.047
1091.97	35.246
1095.69	242.197
1099.4	3.635
1103.12	43.033
1106.83	127.516
1110.54	49.969
1114.24	68.307
1117.95	75.854
1121.65	192.75
1125.35	311.215
1129.06	69.889
1132.75	10.676
1136.45	170.262
1140.15	39.242
1143.84	1.053
1147.53	43.633
1151.22	123.367
1154.91	247.666
1158.6	5.047
1162.28	47.027
1165.97	147.074
1169.65	213.297
1173.33	133.777
1177.01	153.996
1180.69	152.896
1184.36	195.01
1188.04	84.768
1191.71	234.889
1195.38	144.301
1199.05	115.814
1202.71	304.002
1206.38	197.705
1210.04	158.797
1213.71	255.98
1217.37	218.557
1221.03	197.471
1224.68	257.676
1228.34	147.312
1231.99	168.43
1235.65	258.031
1239.3	156.258
1242.95	300.896
1246.59	314.037
1250.24	325.395
1253.88	123.58
1257.53	159.738
1261.17	165.631
1264.81	258.254
1268.45	204.445
1272.08	109.475
1275.72	250.029
1279.35	300.584
1282.98	59.578
1286.61	185.797
1290.24	83.084
1293.87	225.984
1297.49	70.172
1301.11	178.951
1304.73	20.625
1308.36	52.881
1311.97	46.768
1315.59	127.43
1319.2	14.344
1322.82	120.01
1326.43	220.229
1330.04	116.248
1333.65	195.543
1337.26	56.898
1340.86	350.139
1344.47	167.584
1348.07	430.053
1351.67	293.709
1355.27	416.869
1358.87	346.846
1362.46	306.08
1366.06	277.484
1369.65	427.246
1373.24	263.762
1376.83	288.229
1380.42	352.137
1384	468.477
1387.59	190.863
1391.17	530.814
1394.75	403.635
1398.33	386.43
1401.91	385.295
1405.49	284.656
1409.06	368.389
1412.64	470.121
1416.21	453.457
1419.78	352.59
1423.35	159.283
1426.91	322.881
1430.48	334.014
1434.05	366.504
1437.61	541.633
1441.17	239.449
1444.73	606.816
1448.29	461.094
1451.84	562.18
1455.4	543.135
1458.95	418.768
1462.5	186.953
1466.05	245.328
1469.6	273.113
1473.15	202.25
1476.69	312.051
1480.24	323.973
1483.78	354.088
1487.32	228.678
1490.86	539.662
1494.39	368.867
1497.93	161.068
1501.46	328.1
1505	94.969
1508.53	144.791
1512.06	62.234
1515.59	0.586
