Measurement: Raman, 532 nm, unoriented, Raman Data Processed
Mineral: Vesuvianite
Rruff sample: R050056
Ideal chemistry: (Ca,Na)_19_(Al,Mg,Fe)_13_(SiO_4_)_10_(Si_2_O_7_)_4_(OH,F,O)_10_
Locality: Jeffrey Quarry, Asbestos, Quebec, Canada
Source: Tony Gordian
Description: Green prismatic single crystal
Measured chemistry: Ca_19_(Al_.804_Mg_.149_Fe_.045_Mn_.002_)_13_Si_18_O_68_(OH)_10_
Raman shift (cm-1)	intensity
113.503	0
116.878	32.203
120.253	25.0738
123.627	4.30357
127.002	42.7391
130.377	151.557
133.752	242.619
137.127	415.433
140.502	410.188
143.876	312.413
147.251	287.902
150.626	389.023
154.001	593.489
157.376	908.976
160.75	1352.21
164.125	1454.95
167.5	1229.18
170.875	1060.73
174.25	973.503
177.625	825.845
180.999	732.85
184.374	537.915
187.749	320.672
191.124	87.6565
194.499	36.9089
197.874	74.0316
201.248	68.6218
204.623	250.564
207.998	416.75
211.373	619.385
214.748	717.962
218.122	652.197
221.497	497.368
224.872	429.141
228.247	377.613
231.622	259.527
234.996	127.257
238.371	32.5542
241.746	4.60675
245.121	13.6381
248.496	209.143
251.871	776.763
255.245	1245.61
258.62	871.256
261.995	400.096
265.37	139.917
268.745	214.697
272.12	383.667
275.494	376.264
278.869	297.841
282.244	479.118
285.619	659.104
288.994	696.203
292.368	384.094
295.743	75.7529
299.118	67.3306
302.493	29.3059
305.868	57.2134
309.243	4.49341
312.617	26.6819
315.992	46.3682
319.367	161.618
322.742	217.346
326.117	355.9
329.491	525.476
332.866	721.05
336.241	648.037
339.616	458.005
342.991	311.563
346.365	440.786
349.74	665.692
353.115	907.605
356.49	1169.04
359.865	1481.37
363.24	1716.45
366.614	1974.23
369.989	2204.86
373.364	2368.06
376.739	2325.72
380.114	2091.14
383.488	1672.62
386.863	1331.53
390.238	1305.64
393.613	1471.81
396.988	1885.69
400.363	2389.64
403.737	2637.59
407.112	2571.29
410.487	2184.85
413.862	1594.03
417.237	1019.29
420.611	609.152
423.986	298.705
427.361	70.3723
430.736	26.03
434.111	-2.7995
437.486	24.6418
440.86	19.16
444.235	98.4382
447.61	199.158
450.985	260.921
454.36	298.676
457.735	259.008
461.109	364.986
464.484	451.414
467.859	710.652
471.234	1040.1
474.609	1363.8
477.983	1476.88
481.358	1335.56
484.733	1006.04
488.108	701.582
491.483	532.28
494.858	427.444
498.232	451.698
501.607	458.291
504.982	517.143
508.357	483.729
511.732	422.653
515.106	323.727
518.481	216.358
521.856	81.1985
525.231	31.6572
528.606	68.2183
531.981	69.7393
535.355	150.447
538.73	237.9
542.105	193.106
545.48	66.6218
548.855	24.5137
552.229	9.18754
555.604	14.5077
558.979	7.97198
562.354	22.7458
565.729	34.1304
569.104	115.643
572.478	264.201
575.853	438.721
579.228	613.705
582.603	917.658
585.978	1249.71
589.352	1516.3
592.727	1760.28
596.102	1930.91
599.477	2045.93
602.852	2169.13
606.227	2285.61
609.601	2331.62
612.976	2499.74
616.351	3041.44
619.726	4345.25
623.101	6713.04
626.476	10499.5
629.85	15663.6
633.225	19975.8
636.6	17318.2
639.975	11150.6
643.35	6386.81
646.724	3594.91
650.099	1948.89
653.474	1075.38
656.849	561.679
660.224	309.11
663.598	161.555
666.973	78.4702
670.348	40.0563
673.723	24.585
677.098	13.5769
680.472	52.2843
683.847	139.581
687.222	302.338
690.597	493.023
693.972	653.455
697.347	562.953
700.721	321.996
704.096	82.3955
707.471	19.1957
710.846	27.3776
714.221	19.9646
717.596	2.34033
720.97	52.7106
724.345	57.8131
727.72	91.5883
731.095	66.5037
734.47	82.0568
737.844	122.011
741.219	119.903
744.594	138.313
747.969	146.327
751.344	150.691
754.719	123.521
758.093	108.344
761.468	58.2666
764.843	21.6409
768.218	15.4629
771.593	13.1233
774.967	41.1134
778.342	37.05
781.717	14.5983
785.092	29.8097
788.467	111.28
791.842	151.235
795.216	238.257
798.591	179.92
801.966	240.225
805.341	263.562
808.716	273.969
812.091	270.698
815.465	249.175
818.84	190.484
822.215	143.314
825.59	89.2344
828.965	65.918
832.339	143.269
835.714	177.208
839.089	318.916
842.464	469.625
845.839	759.867
849.213	1014.15
852.588	1176.33
855.963	1246.72
859.338	1185.6
862.713	992.172
866.087	765.676
869.462	576.342
872.837	464.398
876.212	357.13
879.587	283.1
882.962	217.987
886.337	234.417
889.711	100.527
893.086	68.2124
896.461	14.081
899.836	18.9482
903.211	122.169
906.585	297.483
909.96	611.039
913.335	984.044
916.71	1431.66
920.085	1778.35
923.46	1997.23
926.834	2003.36
930.209	1816.4
933.584	1640.8
936.959	1429
940.334	1215.06
943.708	1009.38
947.083	905.756
950.458	831.519
953.833	943.34
957.208	1076.71
960.582	1211.67
963.957	1298.69
967.332	1209.42
970.707	1023.6
974.082	913.608
977.457	747.407
980.831	491.019
984.206	300.165
987.581	56.8779
990.956	6.00182
994.331	21.8957
997.705	11.1947
1001.08	68.3884
1004.46	294.354
1007.83	455.045
1011.21	580.575
1014.58	643.619
1017.95	656.667
1021.33	592.072
1024.7	589.132
1028.08	600.952
1031.45	682.281
1034.83	686.024
1038.2	612.023
1041.58	427.511
1044.95	264.317
1048.33	170.844
1051.7	81.4496
1055.08	18.2948
1058.45	9.58008
1061.83	9.42761
1065.2	11.531
1068.58	23.713
1071.95	53.4222
1075.33	73.012
1078.7	85.981
1082.08	105.184
1085.45	116.731
1088.83	127.825
1092.2	150.926
1095.58	156.173
1098.95	156.689
1102.33	162.802
1105.7	170.306
1109.07	168.266
1112.45	143.412
1115.82	143.153
1119.2	129.895
1122.57	121.77
1125.95	119.77
1129.32	88.709
1132.7	89.8256
1136.07	85.1399
1139.45	95.3993
1142.82	88.052
1146.2	63.3346
1149.57	77.6295
1152.95	45.2899
1156.32	56.7379
1159.7	63.1957
1163.07	58.1316
1166.45	71.1188
1169.82	37.0944
1173.2	29.1885
1176.57	31.8803
1179.95	23.5361
1183.32	21.2888
1186.69	39.9131
1190.07	2.43799
1193.44	34.1212
1196.82	50.4702
1200.19	9.92932
1203.57	18.3804
1206.94	9.21912
1210.32	9.82385
1213.69	5.69788
1217.07	5.92273
1220.44	9.46741
1223.82	21.1776
1227.19	18.1354
1230.57	3.4419
1233.94	12.4815
1237.32	16.8356
1240.69	11.8026
1244.07	8.66602
1247.44	12.6928
1250.82	19.118
1254.19	19.46
1257.57	37.4767
1260.94	24.2361
1264.32	1.90808
1267.69	25.5016
1271.07	30.6947
1274.44	23.7678
1277.82	21.1726
1281.19	21.0675
1284.57	0.284302
1287.94	26.1186
1291.32	3.14673
1294.69	19.0395
1298.06	23.4919
1301.44	14.6646
1304.81	7.94238
