Measurement: Raman, 532 nm, unoriented, Raman Data Processed
Mineral: Vesuvianite
Rruff sample: R060170
Ideal chemistry: (Ca,Na)_19_(Al,Mg,Fe)_13_(SiO_4_)_10_(Si_2_O_7_)_4_(OH,F,O)_10_
Locality: Jeffrey mine, Asbestos, Quebec, Canada
Source: Guy Ouellet
Description: Violet prismatic crystals on diopside, R060171
Measured chemistry: Ca_19.00_(Al_10.85_Mg_1.38_Mn_0.54_Fe^2+^_0.21_Cr_0.02_)_Σ=13_Si_18.00_O_68_((OH)_9.13_O_0.87_)_Σ=10_ ; B not measured.
Raman shift (cm-1)	intensity
144.743	0
148.118	7.80182
151.493	35.9396
154.867	53.8381
158.242	75.0005
161.617	97.1077
164.992	120.042
168.367	131.6
171.742	134.957
175.116	138.803
178.491	129.09
181.866	106.083
185.241	75.9541
188.616	40.9128
191.99	20.4239
195.365	5.05767
198.74	0.26486
202.115	5.62624
205.49	15.5585
208.864	33.5118
212.239	42.5006
215.614	49.62
218.989	40.5893
222.364	4.21812
225.739	5.84668
229.113	0.129103
232.488	5.57981
235.863	1.37565
239.238	5.73642
242.613	14.7679
245.988	30.4717
249.362	60.5869
252.737	101.23
256.112	138.862
259.487	124.824
262.862	75.7988
266.236	37.317
269.611	18.6657
272.986	27.5661
276.361	48.8982
279.736	60.1508
283.111	73.5524
286.485	84.8718
289.86	88.4114
293.235	73.9724
296.61	48.9338
299.985	36.7662
303.36	10.4487
306.734	2.64007
310.109	2.27144
313.484	2.0398
316.859	2.64376
320.234	0.073119
323.608	8.81361
326.983	21.2709
330.358	22.7588
333.733	23.6186
337.108	28.1357
340.483	51.1611
343.857	80.9959
347.232	122.133
350.607	167.435
353.982	217.149
357.357	262.737
360.731	286.423
364.106	270.415
367.481	227.464
370.856	181.084
374.231	147.504
377.606	115.549
380.98	91.5641
384.355	75.7116
387.73	61.5121
391.105	54.6516
394.48	54.8633
397.854	69.1351
401.229	88.8842
404.604	107.395
407.979	112.965
411.354	110.01
414.729	87.5987
418.103	62.4551
421.478	36.7513
424.853	16.5886
428.228	1.13451
431.603	3.45732
434.978	0.41749
438.352	0.924468
441.727	3.14154
445.102	8.54779
448.477	14.1042
451.852	26.4329
455.226	33.9279
458.601	40.8427
461.976	52.2483
465.351	69.572
468.726	93.3171
472.101	120.429
475.475	138.653
478.85	137.789
482.225	117.903
485.6	85.2947
488.975	59.5344
492.349	44.9623
495.724	33.9183
499.099	25.8389
502.474	24.9908
505.849	24.942
509.224	27.4895
512.598	24.2903
515.973	21.0405
519.348	15.8583
522.723	8.44682
526.098	7.25114
529.472	2.40766
532.847	2.56495
536.222	1.9472
539.597	0.272772
542.972	0.235789
546.347	2.16424
549.721	1.06613
553.096	0.591362
556.471	0.38484
559.846	0.916478
563.221	1.64159
566.596	0.346915
569.97	0.107852
573.345	3.80317
576.72	1.81109
580.095	11.9611
583.47	18.0595
586.845	25.1397
590.219	30.1642
593.594	36.746
596.969	43.4162
600.344	48.2341
603.719	51.0356
607.093	58.5023
610.468	68.7901
613.843	79.0446
617.218	103.221
620.593	138.3
623.967	189.751
627.342	265.496
630.717	363.006
634.092	469.09
637.467	528.905
640.842	506.841
644.216	424.148
647.591	320.171
650.966	223.003
654.341	141.169
657.716	85.1505
661.091	54.8275
664.465	39.7775
667.84	30.0621
671.215	31.1261
674.59	46.3441
677.965	67.0366
681.34	95.7515
684.714	128.926
688.089	160.133
691.464	142.279
694.839	92.87
698.214	45.4577
701.588	19.2971
704.963	3.36626
708.338	0.858348
711.713	3.2175
715.088	1.76788
718.462	0.265711
721.837	0.218521
725.212	0.636491
728.587	0.459352
731.962	2.65876
735.337	5.09915
738.712	8.66486
742.086	11.8638
745.461	13.3137
748.836	14.6219
752.211	14.1992
755.586	15.3959
758.96	14.788
762.335	14.4551
765.71	13.1092
769.085	11.9824
772.46	11.0328
775.835	8.68851
779.209	6.43924
782.584	3.39028
785.959	3.7073
789.334	1.92675
792.709	3.00789
796.083	1.58239
799.458	1.46296
802.833	1.26105
806.208	2.0762
809.583	0.101746
812.957	0.527116
816.332	0.15828
819.707	0.324816
823.082	1.24008
826.457	1.16272
829.832	6.29995
833.207	17.4175
836.581	25.3941
839.956	43.9093
843.331	62.4628
846.706	85.8547
850.081	110.864
853.455	134.543
856.83	145.258
860.205	147.195
863.58	141.166
866.955	135.305
870.33	126.428
873.704	115.957
877.079	99.8961
880.454	81.8355
883.829	61.8066
887.204	43.3518
890.578	17.9922
893.953	3.76023
897.328	0.742344
900.703	1.45821
904.078	9.60463
907.452	20.6005
910.827	43.6463
914.202	74.2051
917.577	113.236
920.952	152.449
924.327	185.891
927.702	195.108
931.076	173.977
934.451	140.756
937.826	106.94
941.201	77.1931
944.576	66.1275
947.95	60.7474
951.325	61.4086
954.7	70.5393
958.075	74.6498
961.45	75.4274
964.824	69.645
968.199	53.434
971.574	42.4911
974.949	38.3414
978.324	33.1115
981.699	29.3139
985.073	14.3358
988.448	0.237484
991.823	0.971567
995.198	3.53404
998.573	0.241894
1001.95	1.88687
1005.32	0.412142
1008.7	7.67671
1012.07	16.3094
1015.45	13.6549
1018.82	13.9598
1022.2	14.4119
1025.57	17.1993
1028.95	26.4856
1032.32	36.0546
1035.7	46.4557
1039.07	52.145
1042.44	53.9647
1045.82	44.0466
1049.19	33.747
1052.57	18.0407
1055.94	8.87909
1059.32	2.47493
1062.69	1.28112
1066.07	3.40606
1069.44	2.27679
1072.82	0.187083
1076.19	0.398266
1079.57	0.383173
1082.94	0.622982
1086.32	2.57691
1089.69	2.22975
1093.07	1.16399
1096.44	3.93833
1099.82	4.31241
1103.19	3.60342
1106.57	4.57279
1109.94	3.9596
1113.32	5.0033
1116.69	7.02272
1120.07	5.26251
1123.44	3.80503
1126.82	6.08872
1130.19	2.52913
1133.57	4.19253
1136.94	1.5163
1140.32	3.00524
1143.69	3.45056
1147.07	5.15086
1150.44	5.41103
1153.81	2.01575
1157.19	1.42508
1160.56	2.36079
1163.94	2.05713
1167.31	1.37959
1170.69	4.18111
1174.06	2.92945
1177.44	2.85832
1180.81	0.333772
1184.19	1.08991
1187.56	0.249669
1190.94	1.11908
1194.31	1.14238
1197.69	0.166652
1201.06	1.96535
1204.44	0.54979
1207.81	0.323814
1211.19	1.62131
1214.56	1.52301
1217.94	1.5532
1221.31	1.94599
1224.69	0.25552
1228.06	0.132087
1231.43	1.73885
1234.81	0.058088
1238.18	0.418849
1241.56	0.162585
1244.93	1.50191
1248.31	0.710676
1251.68	1.37915
1255.06	2.32283
1258.43	1.69147
1261.81	2.98474
1265.18	2.07094
1268.56	5.8737
1271.93	3.34957
1275.31	3.13031
1278.68	4.44794
1282.06	0.475686
1285.43	3.18298
1288.81	2.76125
1292.18	0.011938
1295.56	3.68731
1298.93	0.539012
1302.31	0
