Measurement: Raman, 780 nm, unoriented, Raman Data Processed
Mineral: Vesuvianite
Rruff sample: R050489
Ideal chemistry: (Ca,Na)_19_(Al,Mg,Fe)_13_(SiO_4_)_10_(Si_2_O_7_)_4_(OH,F,O)_10_
Locality: Crestmore Quarry, Riverside County, California, USA
Source: California Institute of Technology
Description: Green prismatic crystal
Measured chemistry: Ca_19.00_(Al_9.56_Mg_2.36_Fe^2+^_0.86_Ti_0.22_)_Σ=13_Si_18.00_O_68_((OH)_9.59_F_0.41_)_Σ=10_ ; B not measured
Raman shift (cm-1)	intensity
127.049	0.549805
130.424	28.0713
133.799	32.0493
137.174	36.3809
140.549	27.1851
143.923	13.562
147.298	0.554688
150.673	0.344971
154.048	29.5486
157.423	25.8919
160.798	14.4748
164.172	3.04785
167.547	12.6899
170.922	26.9683
174.297	34.6821
177.672	29.8276
181.046	27.4849
184.421	31.7092
187.796	37.9595
191.171	11.1555
194.546	10.2571
197.921	9.46265
201.295	20.7251
204.67	41.1855
208.045	63.3008
211.42	100.112
214.795	110.6
218.169	120.72
221.544	123.175
224.919	114.546
228.294	107.63
231.669	90.0159
235.043	74.1571
238.418	72.2529
241.793	61.3146
245.168	76.8638
248.543	81.5072
251.918	93.0464
255.292	108.965
258.667	81.9702
262.042	42.9868
265.417	21.3154
268.792	29.4911
272.166	35.6279
275.541	45.1174
278.916	76.5194
282.291	102.386
285.666	126.324
289.041	133.446
292.415	123.224
295.79	113.852
299.165	108.433
302.54	100.642
305.915	90.1835
309.289	86.1655
312.664	76.2165
316.039	69.9995
319.414	65.9373
322.789	52.7399
326.164	46.0955
329.538	38.209
332.913	24.8571
336.288	11.6036
339.663	0.286743
343.038	1.97266
346.413	7.35754
349.787	14.3328
353.162	23.9238
356.537	36.2858
359.912	43.9874
363.287	47.4518
366.661	50.8654
370.036	44.5438
373.411	50.5054
376.786	60.9482
380.161	53.3494
383.536	57.217
386.91	60.264
390.285	80.7218
393.66	92.266
397.035	124.179
400.41	163.374
403.784	185.303
407.159	198.997
410.534	190.72
413.909	158.916
417.284	122.705
420.659	89.9855
424.033	64.7906
427.408	25.4093
430.783	4.927
434.158	3.11401
437.533	2.29138
440.907	3.32031
444.282	4.68457
447.657	3.30066
451.032	4.55042
454.407	13.3011
457.781	15.8472
461.156	31.8632
464.531	41.0862
467.906	63.1393
471.281	66.0665
474.656	76.025
478.03	76.4401
481.405	76.6788
484.78	73.2275
488.155	62.1368
491.53	61.269
494.904	45.2366
498.279	42.1976
501.654	42.254
505.029	33.6959
508.404	32.8511
511.779	31.8712
515.153	24.134
518.528	13.7705
521.903	10.5041
525.278	4.22937
528.653	0.168457
532.028	0.005127
535.402	2.33582
538.777	2.69568
542.152	3.54517
545.527	1.70154
548.902	1.43189
552.276	5.80591
555.651	2.6228
559.026	1.32275
562.401	6.03931
565.776	4.23901
569.15	11.9503
572.525	20.171
575.9	27.0523
579.275	47.3523
582.65	63.8608
586.025	81.8892
589.399	90.5603
592.774	94.261
596.149	99.5638
599.524	107.975
602.899	108.399
606.274	116.378
609.648	116.985
613.023	115.73
616.398	126.06
619.773	143.332
623.148	167.007
626.523	196.867
629.897	236.738
633.272	269.748
636.647	294.165
640.022	286.206
643.396	239.543
646.771	172.172
650.146	111.404
653.521	54.0116
656.896	21.6165
660.271	9.09815
663.645	3.31909
667.02	0.772705
670.395	8.72449
673.77	14.8748
677.145	19.6411
680.519	39.5599
683.894	56.8602
687.269	90.6304
690.644	123.259
694.019	148.948
697.394	151.62
700.769	101.694
704.143	54.7025
707.518	23.3749
710.893	8.93115
714.268	0.213013
717.643	0.85437
721.017	4.86572
724.392	2.13001
727.767	12.1644
731.142	16.477
734.517	16.1446
737.891	23.7289
741.266	31.4933
744.641	34.7765
748.016	33.8367
751.391	43.9158
754.766	32.5346
758.14	30.5178
761.515	22.1871
764.89	16.8274
768.265	10.4668
771.64	3.78357
775.014	0.912109
778.389	1.89905
781.764	7.33215
785.139	8.27942
788.514	11.5662
791.889	10.3756
795.263	12.973
798.638	24.7531
802.013	26.5122
805.388	20.4757
808.763	14.9905
812.138	2.4906
815.512	0.031006
818.887	3.71252
822.262	2.34534
825.637	2.71411
829.012	4.39673
832.386	14.556
835.761	16.6989
839.136	24.4471
842.511	40.7053
845.886	61.02
849.26	79.835
852.635	106.325
856.01	129.704
859.385	135.274
862.76	133.213
866.135	116.062
869.509	92.7023
872.884	80.8989
876.259	71.0199
879.634	65.9386
883.009	60.7621
886.384	54.9145
889.758	42.4241
893.133	39.2098
896.508	29.8525
899.883	21.0298
903.258	17.8252
906.632	22.0555
910.007	38.3781
913.382	61.8684
916.757	86.3168
920.132	105.929
923.506	139.375
926.881	170.019
930.256	180.087
933.631	179.02
937.006	173.413
940.381	151.272
943.755	133.92
947.13	117.593
950.505	100.567
953.88	88.0508
957.255	86.5715
960.63	73.3025
964.004	71.4887
967.379	62.5717
970.754	55.1094
974.129	49.3707
977.504	44.6503
980.878	29.9757
984.253	19.4794
987.628	8.66431
991.003	0.192261
994.378	2.12817
997.753	6.81396
1001.13	4.38849
1004.5	1.72955
1007.88	4.77319
1011.25	11.8879
1014.63	11.0414
1018	15.6343
1021.38	28.7803
1024.75	28.2952
1028.13	32.7854
1031.5	39.8041
1034.88	42.7673
1038.25	49.4532
1041.62	40.8915
1045	39.4376
1048.38	26.6338
1051.75	18.8521
1055.12	13.2916
1058.5	4.43439
1061.87	5.02325
1065.25	3.20923
1068.62	4.42975
1072	3.33569
1075.37	7.62402
1078.75	5.76959
1082.12	10.857
1085.5	6.76392
1088.87	1.27911
1092.25	4.36328
1095.62	9.77173
1099	7.05157
1102.37	10.6803
1105.75	9.4801
1109.12	14.6417
1112.5	16.6816
1115.87	18.6474
1119.25	15.1127
1122.62	7.40454
1126	4.84027
1129.37	9.17236
1132.74	5.48956
1136.12	2.90417
1139.49	7.52472
1142.87	6.57165
1146.24	7.25696
1149.62	2.71979
1152.99	0.780762
1156.37	2.5036
1159.74	0.904573
1163.12	1.24078
1166.49	2.33771
1169.87	3.03967
1173.24	2.11523
1176.62	0.468079
1179.99	5.03931
1183.37	4.08734
1186.74	5.10474
1190.12	2.95178
1193.49	0.264893
1196.87	1.49445
1200.24	0.790039
1203.62	1.74561
1206.99	4.58539
1210.37	6.02026
1213.74	5.40643
1217.12	9.93103
1220.49	7.90375
1223.87	10.5335
1227.24	16.4754
1230.62	19.4077
1233.99	24.399
1237.37	25.7304
1240.74	27.0621
1244.11	34.2089
1247.49	29.2494
1250.86	31.726
1254.24	24.6199
1257.61	25.0837
1260.99	23.0386
1264.36	17.708
1267.74	10.4613
1271.11	9.17212
1274.49	5.90118
1277.86	1.83337
1281.24	0.32196
1284.61	3.09851
