Measurement: Raman, 785 nm, unoriented, Raman Data Processed
Mineral: Vesuvianite
Rruff sample: R070226
Ideal chemistry: (Ca,Na)_19_(Al,Mg,Fe)_13_(SiO_4_)_10_(Si_2_O_7_)_4_(OH,F,O)_10_
Locality: Lupikko Mine, Pitkyaranta (Pitkäranta) District, Ladoga Region, Karelia Republic,  Northern Region, Russia
Source: Michael Scott
Description: Aggregate of gray prismatic crystals associated with calcite
Measured chemistry: (Ca_18.48_Mn_0.10_[box]_0.32_)_Σ=19_(Al_9.84_Mg_1.77_Fe^2+^_1.39_)_Σ=13_(Si_1.00_O_4_)_10_(Si_2.00_O_7_)_4_O((OH)_5.53_F_3.11_Cl_0.36_)_Σ=9_;
Raman shift (cm-1)	intensity
177.427	0
180.32	50.333
183.212	26.937
186.105	49.168
188.998	66.426
191.891	2.58716
194.783	47.1394
197.676	12.1128
200.569	5.99854
203.461	18.4919
206.354	97.7998
209.247	95.3928
212.139	193.361
215.032	266.545
217.925	406.853
220.818	517.493
223.71	594.34
226.603	526.708
229.496	349.681
232.388	223.583
235.281	230.36
238.174	186.997
241.066	195.831
243.959	236.303
246.852	178.868
249.745	230.921
252.637	297.585
255.53	358.948
258.423	335.733
261.315	231.959
264.208	88.0505
267.101	50.906
269.993	2.0044
272.886	32.3992
275.779	57.6338
278.672	147.314
281.564	192.909
284.457	294.05
287.35	333.401
290.242	298.181
293.135	282.472
296.028	209.112
298.921	91.8289
301.813	39.7429
304.706	4.52539
307.599	26.2317
310.491	18.0625
313.384	13.1277
316.277	41.8843
319.169	8.03687
322.062	87.3467
324.955	165.873
327.847	209.414
330.74	217.949
333.633	228.754
336.526	224.681
339.418	244.317
342.311	186.148
345.204	210.38
348.096	209.113
350.989	259.137
353.882	275.132
356.774	294.01
359.667	338.776
362.56	385.506
365.452	428.629
368.345	444.399
371.238	492.668
374.131	517.377
377.023	390.109
379.916	299.791
382.809	209.279
385.701	171.384
388.594	192.865
391.487	168.649
394.38	241.754
397.272	337.716
400.165	477.41
403.058	582.505
405.95	721.085
408.843	858.532
411.736	972.228
414.628	986.142
417.521	912.742
420.414	717.297
423.307	520.36
426.199	301.822
429.092	172.005
431.985	78.4592
434.877	11.2424
437.77	10.4089
440.663	25.0205
443.555	9.57275
446.448	42.8897
449.341	87.6118
452.234	60.5845
455.126	94.6677
458.019	34.0637
460.912	89.5562
463.804	39.4106
466.697	21.0498
469.59	21.6636
472.483	9.375
475.375	20.0654
478.268	29.7495
481.161	7.34814
484.053	0.476074
486.946	35.9697
489.839	84.7092
492.731	106.258
495.624	145.471
498.517	169.458
501.409	238.75
504.302	287.321
507.195	290.246
510.088	284.337
512.98	229.569
515.873	180.358
518.766	118.763
521.658	142.533
524.551	95.2978
527.444	51.0864
530.337	87.4858
533.229	8.26733
536.122	15.9106
539.015	33.3904
541.907	21.21
544.8	43.3906
547.693	43.1785
550.585	39.7908
553.478	31.8176
556.371	10.002
559.263	6.71094
562.156	23.0134
565.049	8.61987
567.942	0.709961
570.834	26.3765
573.727	5.9563
576.62	89.0396
579.512	150.932
582.405	249.145
585.298	267.249
588.19	293.349
591.083	289.333
593.976	228.735
596.869	255.734
599.761	294.485
602.654	343.669
605.547	435.313
608.439	463.846
611.332	515.046
614.225	494.061
617.117	454.168
620.01	441.871
622.903	389.683
625.795	326.926
628.688	360.542
631.581	373.012
634.474	382.192
637.366	339.379
640.259	279.38
643.152	302.277
646.044	221.17
648.937	175.994
651.83	150.532
654.722	118.608
657.615	51.7207
660.508	72.221
663.401	59.1548
666.293	117.233
669.186	90.8838
672.079	139.156
674.971	178.734
677.864	306.913
680.757	399.311
683.649	577.973
686.542	786.8
689.435	1026.9
692.328	1188
695.22	1215.09
698.113	1016.25
701.006	730.409
703.898	455.85
706.791	274.998
709.684	143.138
712.577	97.1306
715.469	73.8867
718.362	16.4255
721.255	24.022
724.147	19.8711
727.04	10.52
729.933	60.408
732.825	18.8352
735.718	19.6453
738.611	38.8603
741.504	40.1362
744.396	74.3735
747.289	30.2578
750.182	34.6416
753.074	63.0059
755.967	50.3218
758.86	53.2087
761.752	79.6807
764.645	37.2065
767.538	69.9136
770.431	57.3066
773.323	69.144
776.216	36.0444
779.109	5.12939
782.001	9.39551
784.894	62.1606
787.787	8.7959
790.679	6.40698
793.572	1.92822
796.465	11.5806
799.357	8.73999
802.25	44.7969
805.143	0.209961
808.036	5.35913
810.928	29.9072
813.821	37.6619
816.714	70.0295
819.606	6.82446
822.499	38.4827
825.392	32.1497
828.284	38.1677
831.177	20.4106
834.07	103.26
836.963	154.538
839.855	234.746
842.748	365.206
845.641	470.654
848.533	559.126
851.426	732.188
854.319	844.722
857.212	908.308
860.104	980.437
862.997	1049.4
865.89	986.883
868.782	920.286
871.675	820.522
874.568	841.759
877.46	672.136
880.353	625.077
883.246	571.359
886.139	483.435
889.031	432.716
891.924	358.144
894.817	325.181
897.709	281.754
900.602	279.594
903.495	320.205
906.388	347.304
909.28	519.877
912.173	703.095
915.066	915.654
917.958	1171.48
920.851	1384.31
923.744	1678.85
926.636	1748.43
929.529	1782.48
932.422	1750.21
935.314	1622.14
938.207	1616.53
941.1	1509.99
943.993	1452.11
946.885	1326.8
949.778	1240.28
952.671	1156.37
955.563	995.173
958.456	884.096
961.349	790.289
964.241	646.321
967.134	550.384
970.027	438.008
972.92	305.669
975.812	238.844
978.705	132.288
981.598	104.074
984.49	88.3855
987.383	38.9006
990.276	22.4016
993.168	28.2229
996.061	31.7671
998.954	18.9065
1001.85	18.0149
1004.74	9.27515
1007.63	9.50903
1010.52	63.2065
1013.42	82.1074
1016.31	161.831
1019.2	184.974
1022.1	229.244
1024.99	284.062
1027.88	307.709
1030.77	307.247
1033.67	323.775
1036.56	398.609
1039.45	455.795
1042.34	482.701
1045.24	407.578
1048.13	377.47
1051.02	254.659
1053.91	122.805
1056.81	92.6748
1059.7	9.9812
1062.59	23.4956
1065.49	52.6101
1068.38	6.19482
1071.27	4.14966
1074.16	16.5518
1077.06	33.1572
1079.95	76.8328
1082.84	122.999
1085.73	218.411
1088.63	143.969
1091.52	76.8789
1094.41	21.5862
1097.31	35.27
1100.2	15.4055
1103.09	44.2612
1105.98	7.01538
1108.88	92.9465
1111.77	68.2507
1114.66	125.19
1117.56	119.712
1120.45	138.245
1123.34	166.102
1126.23	95.6726
1129.12	57.7666
1132.02	55.7119
1134.91	79.0212
1137.8	38.4182
1140.7	60.8018
1143.59	58.9377
1146.48	104.478
1149.37	81.1272
1152.27	41.6843
1155.16	56.4663
1158.05	74.3225
1160.94	31.4219
1163.84	44.6404
1166.73	63.3293
1169.62	10.4734
1172.52	43.9797
1175.41	72.5772
1178.3	24.5173
1181.19	46.3652
1184.09	10.532
1186.98	52.4058
1189.87	25.6189
1192.77	30.7422
1195.66	47.4912
1198.55	36.4824
1201.44	62.9075
1204.34	41.8272
1207.23	43.2434
1210.12	44.9382
1213.01	60.3511
1215.91	32.384
1218.8	17.7854
1221.69	68.3237
1224.58	2.34302
1227.48	26.3372
1230.37	22.5923
