Measurement: Raman, 532 nm, unoriented, Raman Data Processed
Mineral: Vesuvianite
Rruff sample: R070226
Ideal chemistry: (Ca,Na)_19_(Al,Mg,Fe)_13_(SiO_4_)_10_(Si_2_O_7_)_4_(OH,F,O)_10_
Locality: Lupikko Mine, Pitkyaranta (Pitkäranta) District, Ladoga Region, Karelia Republic,  Northern Region, Russia
Source: Michael Scott
Description: Aggregate of gray prismatic crystals associated with calcite
Measured chemistry: (Ca_18.48_Mn_0.10_[box]_0.32_)_Σ=19_(Al_9.84_Mg_1.77_Fe^2+^_1.39_)_Σ=13_(Si_1.00_O_4_)_10_(Si_2.00_O_7_)_4_O((OH)_5.53_F_3.11_Cl_0.36_)_Σ=9_;
Raman shift (cm-1)	intensity
167.5	0
170.393	57.5464
173.286	106.802
176.178	172.852
179.071	346.154
181.964	481.705
184.856	640.851
187.749	565.824
190.642	392.899
193.535	196.254
196.427	94.2417
199.32	31.0679
202.213	25.0713
205.105	57.4873
207.998	79.5952
210.891	193.509
213.783	303.162
216.676	506.255
219.569	663.807
222.462	524.565
225.354	457.618
228.247	220.458
231.14	104.086
234.032	71.3169
236.925	151.355
239.818	221.853
242.71	263.948
245.603	363.635
248.496	533.012
251.388	747.398
254.281	1036.32
257.174	1054.77
260.067	866.938
262.959	435.599
265.852	217.056
268.745	12.9258
271.637	75.3936
274.53	9.21289
277.423	130.516
280.315	359.251
283.208	613.675
286.101	846.752
288.994	897.949
291.886	916.025
294.779	674.639
297.672	388.375
300.564	124.426
303.457	11.8203
306.35	82.1279
309.243	66.5947
312.135	12.793
315.028	117.459
317.921	276.016
320.813	493.273
323.706	555.47
326.599	668.024
329.491	733.957
332.384	731.618
335.277	677.602
338.17	822.297
341.062	831.288
343.955	913.599
346.848	988.008
349.74	1092.18
352.633	1310.7
355.526	1473.92
358.418	1832.91
361.311	2183.16
364.204	2533.35
367.097	2903.75
369.989	3185.51
372.882	3105.89
375.775	2747.62
378.667	2302.09
381.56	1861.2
384.453	1693.91
387.346	1585.46
390.238	1426.03
393.131	1474.29
396.024	1546.69
398.916	1747.78
401.809	1860.16
404.702	2106.45
407.594	2313.63
410.487	2354.43
413.38	2218.32
416.272	1938.99
419.165	1494.51
422.058	967.054
424.951	587.898
427.843	314.522
430.736	160.808
433.629	27.958
436.521	37.4815
439.414	95.0977
442.307	70.5459
445.2	2.92773
448.092	65.9072
450.985	170.297
453.878	224.552
456.77	289.095
459.663	323.357
462.556	302.942
465.448	287.901
468.341	147.37
471.234	215.913
474.127	216.691
477.019	129.618
479.912	168.467
482.805	230.733
485.697	221.856
488.59	301.536
491.483	428.16
494.375	414.711
497.268	494.701
500.161	438.207
503.053	495.781
505.946	507.711
508.839	486.907
511.732	468.784
514.624	420.225
517.517	372.565
520.41	279.141
523.302	209.819
526.195	122.851
529.088	56.542
531.981	71.6387
534.873	17.6484
537.766	33.0469
540.659	79.2461
543.551	58.669
546.444	72.3086
549.337	105.113
552.229	37.0801
555.122	24.8613
558.015	36.6016
560.908	80.8682
563.8	59.9512
566.693	78.7705
569.586	32.5107
572.478	32.5107
575.371	152.52
578.264	348.782
581.156	508.151
584.049	678.347
586.942	743.06
589.835	881.238
592.727	932.992
595.62	962.721
598.513	1170.3
601.405	1318.31
604.298	1550.95
607.191	1760.11
610.083	2039.94
612.976	2352.88
615.869	2448.5
618.762	2739.62
621.654	2942.54
624.547	3202.23
627.44	3647.57
630.332	3823.44
633.225	4126.13
636.118	4072.76
639.01	3877.89
641.903	3450.34
644.796	2844.98
647.689	2404.69
650.581	1826.17
653.474	1566.88
656.367	1240.05
659.259	1048.1
662.152	822.748
665.045	789.762
667.938	685.864
670.83	827.141
673.723	1066.16
676.616	1134.08
679.508	1387.71
682.401	1700.59
685.294	2094.91
688.186	2578.55
691.079	2754.89
693.972	2769.01
696.865	2260.82
699.757	1549.77
702.65	1061.16
705.543	625.323
708.435	381.914
711.328	340.954
714.221	160.219
717.113	70.1348
720.006	40.9023
722.899	40.3398
725.792	33.2412
728.684	22.1055
731.577	0.757813
734.47	16.5244
737.362	18.9971
740.255	9.82227
743.148	30.7158
746.04	8.11133
748.933	7.88574
751.826	6.81836
754.719	54.4268
757.611	2.82324
760.504	40.1807
763.397	36.2978
766.289	66.0996
769.182	11.2334
772.075	81.9004
774.967	54.5957
777.86	102.157
780.753	42.3711
783.646	55.0078
786.538	134.403
789.431	115.95
792.324	99.2275
795.216	84.7988
798.109	132.579
801.002	180.414
803.894	70.7773
806.787	203.989
809.68	109.317
812.573	83.8828
815.465	31.7148
818.358	41.5283
821.251	148.26
824.143	124.538
827.036	15.4727
829.929	57.7998
832.822	76.4385
835.714	264.011
838.607	503.61
841.5	715.644
844.392	1019.58
847.285	1331.98
850.178	1732.8
853.07	1961.15
855.963	2196.82
858.856	2378.48
861.749	2408.64
864.641	2372.99
867.534	2192.9
870.427	2098.92
873.319	1878.9
876.212	1695.7
879.105	1641.58
881.997	1380.17
884.89	1288.6
887.783	1108.28
890.676	806.312
893.568	781.441
896.461	528.475
899.354	626.223
902.246	652.396
905.139	989.584
908.032	1408.95
910.924	1935.19
913.817	2513.46
916.71	3102.51
919.602	3757.86
922.495	4122.59
925.388	4439.23
928.281	4361.24
931.173	4095.88
934.066	3610.22
936.959	3342.5
939.851	3004.31
942.744	2768.49
945.637	2602.92
948.529	2416.23
951.422	2172.22
954.315	2022.84
957.208	1920.36
960.1	1800.86
962.993	1662.56
965.886	1319.53
968.778	1155.16
971.671	895.862
974.564	719.488
977.457	508.881
980.349	396.252
983.242	235.056
986.135	106.16
989.027	11.331
991.92	60.3897
994.813	53.3018
997.705	73.7363
1000.6	83.2969
1003.49	27.4775
1006.38	0.503906
1009.28	68.9678
1012.17	89.7861
1015.06	148.678
1017.95	180.013
1020.85	262.386
1023.74	301.799
1026.63	342.795
1029.53	525.07
1032.42	707.784
1035.31	879.599
1038.2	1099.79
1041.1	1212.96
1043.99	1119.46
1046.88	821.999
1049.77	517.892
1052.67	369.884
1055.56	210.054
1058.45	57.1055
1061.35	20.7969
1064.24	5.8418
1067.13	4.00195
1070.02	38.3906
1072.92	58.8477
1075.81	81.5713
1078.7	88.1992
1081.59	94.8115
1084.49	157.91
1087.38	101.455
1090.27	126.438
1093.16	145.889
1096.06	151.403
1098.95	173.682
1101.84	227.148
1104.73	184.314
1107.63	227.899
1110.52	302.671
1113.41	388.555
1116.31	384.637
1119.2	321.081
1122.09	287.719
1124.98	250.722
1127.88	180.923
1130.77	193.377
1133.66	158.537
1136.56	107.765
1139.45	86.7881
1142.34	137.373
1145.23	102.731
1148.13	33.2168
1151.02	101.303
1153.91	121.967
1156.8	82.2832
1159.7	41.79
1162.59	48.0742
1165.48	128.379
1168.38	90.5039
1171.27	75.9336
1174.16	9.59473
1177.05	128.208
1179.95	78.4238
1182.84	98.2812
1185.73	66.2578
1188.62	65.458
1191.52	61.3701
1194.41	79.0371
1197.3	16.7236
1200.19	41.6006
1203.09	71.3242
1205.98	36.8291
1208.87	121.599
1211.77	52.0703
1214.66	1.0332
1217.55	58.2275
1220.44	20.6904
1223.34	62.0674
1226.23	65.2197
1229.12	25.6982
1232.01	58.7266
1234.91	2.74512
1237.8	59.9522
1240.69	27.7266
1243.59	13.9756
1246.48	65.9736
1249.37	105.497
1252.26	3.19922
1255.16	43.6318
1258.05	76.4531
1260.94	79.2256
1263.83	45.2285
1266.73	89.9678
1269.62	104.022
1272.51	142.783
1275.4	84.0088
1278.3	64.8144
1281.19	10.6992
1284.08	98.5264
1286.98	89.0576
1289.87	117.93
1292.76	117.158
1295.65	11.8779
1298.55	119.21
1301.44	68.8496
1304.33	4.41699
