Measurement: Raman, 532 nm, unoriented, Raman Data Processed
Mineral: Vesuvianite
Rruff sample: R060532
Ideal chemistry: (Ca,Na)_19_(Al,Mg,Fe)_13_(SiO_4_)_10_(Si_2_O_7_)_4_(OH,F,O)_10_
Locality: Jeffrey mine, Asbestos, Quebec, Canada
Source: Michael Scott
Description: Green prismatic single crystal
Raman shift (cm-1)	intensity
153.824	0
156.716	18.027
159.609	573.197
162.502	1555.04
165.394	2611.23
168.287	3456.04
171.18	3306.77
174.072	3857.95
176.965	5166.16
179.858	6205.57
182.751	5561.97
185.643	4135.36
188.536	2304.83
191.429	1378.29
194.321	355.869
197.214	114.523
200.107	14.355
202.999	180.177
205.892	264.834
208.785	1369.01
211.678	2672.16
214.57	3774.96
217.463	4648.52
220.356	4896.14
223.248	4888.7
226.141	5760.94
229.034	5161.23
231.926	3540.34
234.819	2684.99
237.712	2802.9
240.605	2897.4
243.497	2224.51
246.39	1695.1
249.283	2523.66
252.176	3398.31
255.068	4640.75
257.961	4562.56
260.854	2852.47
263.746	1565.8
266.639	439.577
269.532	127.154
272.424	59.242
275.317	375.794
278.21	1016.29
281.103	1311.23
283.995	2056.08
286.888	3086.51
289.781	3727.91
292.673	4209.44
295.566	3909.41
298.459	3000.55
301.351	2057.81
304.244	1520.85
307.137	1009.68
310.03	667.365
312.922	385.016
315.815	245.319
318.708	153.996
321.6	19.067
324.493	187.651
327.386	385.237
330.278	740.386
333.171	939.345
336.064	855.708
338.957	703.279
341.849	634.888
344.742	1076.41
347.635	1682.66
350.527	2971.19
353.42	4747.48
356.313	6957.33
359.205	9078.72
362.098	10124.9
364.991	9638.07
367.884	8082.54
370.776	6306.53
373.669	4742.7
376.562	3451.37
379.454	2188.36
382.347	1433.66
385.24	1196.69
388.132	1126.67
391.025	1215.27
393.918	1545.02
396.81	2081.72
399.703	2622.11
402.596	3249.66
405.489	3996.37
408.381	5220.49
411.274	6806.29
414.167	7637.83
417.06	7309.06
419.952	5855.61
422.845	4182.53
425.738	3310.07
428.63	2384.01
431.523	1389.41
434.416	664.129
437.308	20.562
440.201	75.118
443.094	49.78
445.987	9.678
448.879	231.296
451.772	33.992
454.665	42.22
457.557	75.982
460.45	442.558
463.343	784.048
466.235	1645.41
469.128	2569.08
472.021	3503.07
474.914	4398.06
477.806	5114.17
480.699	5703.57
483.592	5173.38
486.484	4202.21
489.377	3982.64
492.27	2809.52
495.162	2339.14
498.055	2068.56
500.948	1704.61
503.841	1600.37
506.733	1611.37
509.626	1786.82
512.519	1813.41
515.411	1520.76
518.304	1171.26
521.197	852.101
524.089	593.367
526.982	426.554
529.875	189.469
532.768	20.072
535.66	152.842
538.553	110.456
541.446	31.404
544.338	104.494
547.231	494.17
550.124	318.641
553.016	179.669
555.909	67.485
558.802	67.73
561.695	42.263
564.587	119.319
567.48	88.695
570.373	235.371
573.265	209.104
576.158	374.525
579.051	670.919
581.943	1049.01
584.836	1524.74
587.729	2217.82
590.622	2445.58
593.514	2454.81
596.407	2000.65
599.3	1459.69
602.192	868.251
605.085	523.3
607.978	448.772
610.87	522.206
613.763	602.558
616.656	839.423
619.549	1115.3
622.441	1437.31
625.334	2017.43
628.227	3203.26
631.119	4789.7
634.012	7226.16
636.905	10550
639.797	13814.8
642.69	16118.2
645.583	15826.3
648.476	13656.2
651.368	10225.7
654.261	6400.32
657.154	3299.39
660.046	1666.81
662.939	536.608
665.832	72.581
668.724	183.469
671.617	153.425
674.51	513.666
677.403	1427.64
680.295	2723.78
683.188	5202.82
686.081	8600.93
688.973	12051.6
691.866	12658.8
694.759	9235
697.652	5186.85
700.544	2828.71
703.437	1683.48
706.33	1395.79
709.222	1223.44
712.115	563.861
715.008	22.946
717.901	5.903
720.793	31.5
723.686	49.191
726.579	49.302
729.471	38.403
732.364	12.797
735.257	3.954
738.149	266.052
741.042	429.045
743.935	568.103
746.828	941.072
749.72	959.883
752.613	834.506
755.506	781.361
758.398	899.295
761.291	714.481
764.184	617.941
767.076	606.389
769.969	681.627
772.862	734.978
775.755	383.249
778.647	332.578
781.54	172.152
784.433	147.198
787.325	153.424
790.218	205.833
793.111	164.548
796.003	104.467
798.896	139.073
801.789	255.379
804.682	185.454
807.574	55.576
810.467	17.701
813.36	164.915
816.252	101.959
819.145	114.833
822.038	33.118
824.93	157.095
827.823	30.975
830.716	274.262
833.609	294.205
836.501	732.009
839.394	871.823
842.287	1482.82
845.179	2370.9
848.072	3513.46
850.965	4724.78
853.857	6268.77
856.75	7941.4
859.643	9576.24
862.536	10303.8
865.428	9626.35
868.321	8441.98
871.214	6971.94
874.106	5859.43
876.999	5282.37
879.892	5186.61
882.784	5054.61
885.677	4380.63
888.57	3569.95
891.463	2231.71
894.355	1590.35
897.248	1021.38
900.141	421.944
903.033	39.588
905.926	66.511
908.819	290.751
911.711	1064.19
914.604	2009.35
917.497	3365.92
920.39	5422.88
923.282	8137.76
926.175	10774.4
929.068	12943
931.96	13674.2
934.853	13218.3
937.746	11810.8
940.638	9779.86
943.531	7628.04
946.424	5953.83
949.317	4438.14
952.209	3661.23
955.102	3091.7
957.995	2787.49
960.888	2328.12
963.78	2213.75
966.673	1689.02
969.566	1177.07
972.458	987.731
975.351	1062.65
978.244	1689.53
981.136	1995.12
984.029	1873.08
986.922	1151.22
989.815	192.366
992.707	287.212
995.6	232.345
998.493	164.226
1001.38	22.285
1004.28	218.92
1007.17	40.219
1010.06	275.87
1012.96	680.91
1015.85	1227.97
1018.74	1663.2
1021.63	2176.57
1024.53	2699.32
1027.42	2809.69
1030.31	2714.6
1033.2	2387.92
1036.1	2584.5
1038.99	3045.16
1041.88	3082.85
1044.78	2710.18
1047.67	2322.82
1050.56	1544.96
1053.45	1026.81
1056.35	875.877
1059.24	490.593
1062.13	321.927
1065.03	53.253
1067.92	26.131
1070.81	30.809
1073.7	100.121
1076.6	137.898
1079.49	34.569
1082.38	45.559
1085.27	167.936
1088.17	346.476
1091.06	136.708
1093.95	388.455
1096.84	452.521
1099.74	473.255
1102.63	539.723
1105.52	505.273
1108.41	486.948
1111.31	424.906
1114.2	433.927
1117.09	501.631
1119.99	432.918
1122.88	256.763
1125.77	366.587
1128.66	351.547
1131.56	597.428
1134.45	626.528
1137.34	343.538
1140.23	387.998
1143.13	184.217
1146.02	100.713
1148.91	35.332
1151.81	174.566
1154.7	219.725
1157.59	291.995
1160.48	262.568
1163.38	245.829
1166.27	14.894
1169.16	61.651
1172.06	28.984
1174.95	263.734
1177.84	259.812
1180.73	264.897
1183.62	452.223
1186.52	334.721
1189.41	322.588
1192.3	45.247
1195.2	187.624
1198.09	90.121
1200.98	4.834
1203.87	36.606
1206.77	36.742
1209.66	84.069
1212.55	386.691
1215.44	252.643
1218.34	111.804
1221.23	38.762
1224.12	52.489
1227.02	168.698
1229.91	103.696
1232.8	306.925
1235.69	186.757
1238.59	460.561
1241.48	345.53
1244.37	446.399
1247.27	318.957
1250.16	394.983
1253.05	275.571
1255.94	210.043
1258.84	305.358
1261.73	280.298
1264.62	13.609
1267.51	8.605
1270.41	159.807
1273.3	336.082
1276.19	506.79
1279.09	849.966
1281.98	131.805
1284.87	214.288
1287.76	65.284
1290.66	6.756
