Measurement: Raman, 780 nm, unoriented, Raman Data Processed
Mineral: Vesuvianite
Rruff sample: R060532
Ideal chemistry: (Ca,Na)_19_(Al,Mg,Fe)_13_(SiO_4_)_10_(Si_2_O_7_)_4_(OH,F,O)_10_
Locality: Jeffrey mine, Asbestos, Quebec, Canada
Source: Michael Scott
Description: Green prismatic single crystal
Raman shift (cm-1)	intensity
93.4884	0
96.8632	21.8896
100.238	39.3747
103.613	1.14825
106.988	8.74676
110.362	31.2504
113.737	51.3929
117.112	54.7075
120.487	56.2691
123.862	46.2918
127.237	23.81
130.611	19.5312
133.986	16.0936
137.361	18.2198
140.736	21.7988
144.111	0.99527
147.485	4.66116
150.86	1.37283
154.235	7.73834
157.61	25.4616
160.985	56.7739
164.359	101.633
167.734	158.578
171.109	175.969
174.484	148.614
177.859	153.709
181.234	154.778
184.608	119.262
187.983	81.0825
191.358	49.6562
194.733	17.6325
198.108	1.67374
201.482	4.29816
204.857	0.584412
208.232	12.9542
211.607	43.6592
214.982	82.8213
218.357	121.443
221.731	111.413
225.106	61.7672
228.481	50.7908
231.856	42.2424
235.231	26.9057
238.605	25.3001
241.98	32.5456
245.355	39.3141
248.73	62.1044
252.105	96.431
255.48	126.877
258.854	130.032
262.229	89.5384
265.604	53.6804
268.979	24.2082
272.354	9.17313
275.728	21.1471
279.103	44.1713
282.478	65.7899
285.853	97.2524
289.228	116.981
292.602	119.365
295.977	110.93
299.352	100.191
302.727	79.7278
306.102	58.9078
309.476	38.4242
312.851	23.2831
316.226	7.26935
319.601	4.54993
322.976	8.65192
326.351	4.40643
329.725	2.52237
333.1	9.12503
336.475	17.4692
339.85	31.3595
343.225	55.2561
346.599	92.1726
349.974	136.089
353.349	186.421
356.724	241.988
360.099	295.194
363.474	309.619
366.848	274.207
370.223	216.155
373.598	163.722
376.973	122.586
380.348	91.6507
383.722	72.2199
387.097	61.8282
390.472	56.2975
393.847	54.5731
397.222	56.2427
400.596	58.6953
403.971	61.8119
407.346	66.5355
410.721	81.3726
414.096	95.3984
417.471	90.5739
420.845	72.891
424.22	52.283
427.595	40.6301
430.97	24.61
434.345	5.79851
437.719	2.19411
441.094	6.26488
444.469	2.90332
447.844	2.10248
451.219	8.98785
454.594	15.725
457.968	22.1909
461.343	32.6008
464.718	49.9842
468.093	70.8255
471.468	94.6839
474.842	115.803
478.217	131.822
481.592	136.355
484.967	110.081
488.342	70.6802
491.716	47.6977
495.091	36.1638
498.466	24.9725
501.841	17.2982
505.216	15.4752
508.591	18.6168
511.965	19.5249
515.34	16.4831
518.715	13.5613
522.09	9.69022
525.465	6.72386
528.84	4.7343
532.214	4.85887
535.589	1.209
538.964	1.69246
542.339	4.63727
545.713	6.81131
549.088	10.5006
552.463	6.30605
555.838	0.832657
559.213	0.839523
562.588	2.32884
565.962	2.99928
569.337	2.75447
572.712	1.42499
576.087	2.07484
579.462	5.33731
582.837	11.7523
586.211	18.9785
589.586	23.6398
592.961	28.0696
596.336	27.0878
599.711	25.4035
603.085	22.0308
606.46	18.7204
609.835	16.8369
613.21	19.055
616.585	24.3568
619.96	31.8577
623.334	41.3184
626.709	58.6117
630.084	84.335
633.459	123.406
636.833	174.987
640.208	233.607
643.583	268.831
646.958	254.703
650.333	202.493
653.708	135.32
657.082	77.3209
660.457	39.7818
663.832	22.1124
667.207	15.0859
670.582	17.322
673.957	25.7223
677.331	45.5237
680.706	73.0295
684.081	113.194
687.456	172.962
690.831	225.444
694.205	209.615
697.58	124.36
700.955	61.4001
704.33	27.9373
707.705	15.6619
711.079	11.6662
714.454	4.47327
717.829	0.960823
721.204	2.626
724.579	1.45415
727.953	0.683968
731.328	1.4483
734.703	4.20044
738.078	4.98163
741.453	5.49682
744.828	7.62631
748.202	8.03526
751.577	8.18224
754.952	7.86121
758.327	8.27989
761.702	6.3717
765.077	5.72642
768.451	3.91242
771.826	2.87408
775.201	5.75847
778.576	2.0706
781.951	0.334053
785.325	0.763283
788.7	1.54645
792.075	0.560959
795.45	0.752281
798.825	2.13047
802.199	3.01936
805.574	0.919769
808.949	1.131
812.324	0.097458
815.699	0.365341
819.073	1.7032
822.448	3.10655
825.823	4.90566
829.198	7.0678
832.573	10.4621
835.948	17.646
839.322	26.0028
842.697	38.2534
846.072	54.3788
849.447	71.1235
852.822	92.7925
856.197	118.614
859.571	139.776
862.946	152.751
866.321	148.128
869.696	133.149
873.071	117.065
876.445	103.31
879.82	98.3152
883.195	92.7702
886.57	81.8925
889.945	63.6662
893.319	43.0785
896.694	29.5611
900.069	18.1578
903.444	14.1174
906.819	14.5313
910.193	21.2541
913.568	33.0104
916.943	50.5984
920.318	73.6374
923.693	101.362
927.068	131.672
930.442	150.7
933.817	157.452
937.192	146.889
940.567	126.146
943.942	101.895
947.317	81.9187
950.691	65.8907
954.066	54.1917
957.441	47.9763
960.816	42.8761
964.191	35.5318
967.565	29.3644
970.94	22.946
974.315	19.3299
977.69	20.2052
981.065	24.5734
984.439	25.5356
987.814	17.8732
991.189	5.71287
994.564	1.79443
997.939	5.57678
1001.31	4.95319
1004.69	2.20066
1008.06	1.69274
1011.44	3.8734
1014.81	9.27412
1018.19	12.3458
1021.56	16.3986
1024.94	21.15
1028.31	19.8574
1031.69	20.1772
1035.06	21.1842
1038.44	24.2136
1041.81	28.659
1045.19	31.4265
1048.56	27.673
1051.94	20.4232
1055.31	12.2415
1058.68	6.02399
1062.06	2.70918
1065.43	0.11274
1068.81	0.531204
1072.18	0.752151
1075.56	0.438927
1078.93	2.27959
1082.31	0.952301
1085.68	1.08728
1089.06	1.94509
1092.43	1.34007
1095.81	1.69712
1099.18	2.22405
1102.56	3.82041
1105.93	3.28179
1109.31	3.4828
1112.68	3.4562
1116.06	2.93731
1119.43	3.85535
1122.81	3.86622
1126.18	3.4463
1129.56	3.41144
1132.93	2.3086
1136.31	2.22415
1139.68	2.32019
1143.06	1.63346
1146.43	1.50747
1149.81	2.48982
1153.18	1.7763
1156.56	1.46893
1159.93	1.22632
1163.31	1.91747
1166.68	1.58512
1170.05	0.909916
1173.43	1.4871
1176.8	2.17983
1180.18	0.687599
1183.55	0.483639
1186.93	0.489079
1190.3	0.085587
1193.68	0.225613
1197.05	0.215816
1200.43	0.049374
1203.8	0.571587
1207.18	0.894955
1210.55	0.472294
1213.93	0.142937
1217.3	0.609341
1220.68	1.06326
1224.05	0.258064
1227.43	0.198372
1230.8	0.294403
1234.18	0.033417
1237.55	0.760429
1240.92	0.372475
1244.3	0.43441
1247.67	0.445789
1251.05	0.238827
1254.42	0.019352
1257.8	0.415562
1261.17	1.2584
1264.55	0.430485
1267.92	0.540874
1271.3	1.57021
1274.67	0.082409
1278.05	0.88747
1281.42	0.512383
1284.8	0
