Measurement: Raman, 785 nm, unoriented, Raman Data Processed
Mineral: Vesuvianite
Rruff sample: R060902
Ideal chemistry: (Ca,Na)_19_(Al,Mg,Fe)_13_(SiO_4_)_10_(Si_2_O_7_)_4_(OH,F,O)_10_
Locality: Jeffrey mine, Asbestos, Quebec, Canada
Source: Michael Scott
Description: Purple equant, doubly terminated prismatic single crystals.
Raman shift (cm-1)	intensity
175.789	0
178.682	62.3633
181.575	82.1699
184.467	207.5
187.36	293.565
190.253	530.449
193.145	370.098
196.038	140.809
198.931	153.668
201.823	112.43
204.716	109.365
207.609	162.781
210.502	218.688
213.394	282.106
216.287	420.459
219.18	610.164
222.072	862.166
224.965	1143.1
227.858	1375.66
230.75	1359.44
233.643	1192.98
236.536	955.115
239.429	827.451
242.321	997.783
245.214	790.844
248.107	783.731
250.999	597.688
253.892	821.6
256.785	1143.9
259.678	1357.22
262.57	1108.5
265.463	602.773
268.356	196.527
271.248	97.5723
274.141	30.6309
277.034	84.4883
279.926	85.7715
282.819	82.4062
285.712	109.068
288.604	299.449
291.497	405.543
294.39	548.926
297.283	325.582
300.175	213.709
303.068	209.676
305.961	149.773
308.853	117.959
311.746	190.635
314.639	293.353
317.531	313.545
320.424	541.879
323.317	613.264
326.21	679.115
329.102	719.253
331.995	889.867
334.888	847.047
337.78	781.877
340.673	575.938
343.566	238.94
346.459	13.0254
349.351	46.4355
352.244	83.0352
355.137	203.404
358.029	341.282
360.922	393.398
363.815	490.992
366.707	495.654
369.6	541.402
372.493	488.201
375.385	501.123
378.278	251.94
381.171	149.364
384.064	156.148
386.956	153.418
389.849	295.211
392.742	651.619
395.634	952.422
398.527	1460.73
401.42	1973.52
404.312	2556.87
407.205	2887.46
410.098	2702.08
412.991	2083.93
415.883	1653.62
418.776	1316.48
421.669	1040.99
424.561	734.426
427.454	515.844
430.347	221.002
433.24	100.051
436.132	68.8438
439.025	109.803
441.918	59.8477
444.81	39.1914
447.703	58.4883
450.596	46.8828
453.488	44.2969
456.381	44.3418
459.274	149.582
462.166	77.375
465.059	19.6113
467.952	77.4551
470.845	314.764
473.737	406.355
476.63	493.144
479.523	536.559
482.415	790.66
485.308	788.859
488.201	708.826
491.094	512.348
493.986	365.367
496.879	386.152
499.772	296.492
502.664	318.455
505.557	321.078
508.45	373.963
511.342	373.267
514.235	395.286
517.128	394.688
520.02	206.844
522.913	200.754
525.806	131.287
528.699	20.8848
531.591	16.709
534.484	70.4277
537.377	78.4356
540.269	14.7363
543.162	90.2871
546.055	103.25
548.947	178.948
551.84	63.1338
554.733	112.205
557.626	7.04102
560.518	101.026
563.411	39.6445
566.304	54.5283
569.196	68.3555
572.089	129.143
574.982	86.8164
577.875	132.3
580.767	293.767
583.66	428.359
586.553	561.003
589.445	727.807
592.338	750.217
595.231	771.882
598.123	668.953
601.016	522.666
603.909	389.218
606.802	348.633
609.694	303.948
612.587	248.378
615.48	337.487
618.372	341.792
621.265	304.44
624.158	274.461
627.05	185.296
629.943	263.658
632.836	182.637
635.729	177.882
638.621	210.885
641.514	238.333
644.407	228.803
647.299	280.519
650.192	249.627
653.085	159.397
655.977	47.5029
658.87	27.5547
661.763	12.9502
664.655	27.0527
667.548	79.4394
670.441	195.727
673.334	292.343
676.226	432.437
679.119	633.031
682.012	1080.32
684.904	1479.85
687.797	1972.21
690.69	2331.15
693.582	2166.21
696.475	1525.52
699.368	989.469
702.261	548.641
705.153	298.878
708.046	239.986
710.939	112.678
713.831	33.5801
716.724	107.1
719.617	101.431
722.51	84.958
725.402	86.7217
728.295	59.5957
731.188	0.03125
734.08	124.358
736.973	7.36231
739.866	120.936
742.758	227.831
745.651	143.818
748.544	131.868
751.437	244.037
754.329	173.463
757.222	95.249
760.115	135.221
763.007	143.113
765.9	125.151
768.793	64.9268
771.685	80.2998
774.578	34.8594
777.471	25.249
780.364	44.956
783.256	45.9844
786.149	17.125
789.042	19.1221
791.934	5.82617
794.827	32.5762
797.72	60.6338
800.612	78.1875
803.505	15.8428
806.398	7.24902
809.29	8.44434
812.183	74.6064
815.076	100.715
817.969	116.822
820.861	9.35938
823.754	7.36133
826.647	22.334
829.539	18.4473
832.432	57.6211
835.325	13.2461
838.217	132.383
841.11	320.465
844.003	414.805
846.896	788.46
849.788	981.345
852.681	1356.08
855.574	1563.03
858.466	1623.03
861.359	1598.84
864.252	1584.17
867.144	1450.02
870.037	1399.62
872.93	1345.74
875.823	1130.91
878.715	1012.21
881.608	968.051
884.501	796.962
887.393	733.528
890.286	666.611
893.179	663.818
896.072	622.094
898.964	622.895
901.857	713.965
904.75	821.171
907.642	954.782
910.535	1084.83
913.428	1469.18
916.32	1816.92
919.213	2402.98
922.106	2784.66
924.999	3084.56
927.891	3145.31
930.784	2724.08
933.677	2025.74
936.569	1573.06
939.462	1223.91
942.355	853.074
945.247	715.639
948.14	663.894
951.033	657.831
953.926	711.645
956.818	831.97
959.711	934.405
962.604	918.571
965.496	670.098
968.389	461.12
971.282	287.947
974.174	202.623
977.067	152.473
979.96	75.2275
982.852	97.6728
985.745	116.074
988.638	42.2588
991.531	20.6934
994.423	14.6123
997.316	82.8857
1000.21	26.6279
1003.1	28.3105
1005.99	2.83203
1008.89	101.382
1011.78	178.298
1014.67	227.484
1017.57	306.301
1020.46	391.547
1023.35	398.095
1026.24	465.252
1029.14	513.871
1032.03	573.242
1034.92	679.125
1037.81	687.578
1040.71	812.082
1043.6	715.412
1046.49	611.547
1049.38	466.993
1052.28	290.168
1055.17	173.233
1058.06	180.204
1060.95	130.716
1063.85	111.327
1066.74	51.8096
1069.63	53.2734
1072.53	33.5957
1075.42	90.1269
1078.31	6.18555
1081.2	65.1719
1084.1	13.791
1086.99	61.9336
1089.88	22.6572
1092.78	8.41211
1095.67	77.1621
1098.56	30.8438
1101.45	48.2471
1104.35	9.30176
1107.24	112.367
1110.13	34.2168
1113.02	49.749
1115.92	46.1172
1118.81	21.5781
1121.7	118.99
1124.6	53.6699
1127.49	85.2949
1130.38	121.89
1133.27	122.954
1136.17	140.626
1139.06	53.7334
1141.95	88.8477
1144.84	58.6191
1147.74	150.348
1150.63	62.7236
1153.52	125.885
1156.41	82.8799
1159.31	64.8428
1162.2	131.442
1165.09	73.1904
1167.98	77.2676
1170.88	51.2764
1173.77	54.8057
1176.66	76.0801
1179.56	80.4394
1182.45	68.6768
1185.34	48.4375
1188.23	16.6963
1191.13	82.5615
1194.02	21.3594
1196.91	118.614
1199.81	54.9482
1202.7	67.9863
1205.59	14.2139
1208.48	13.207
1211.38	88.9961
1214.27	124.714
1217.16	73.2588
1220.05	92.6797
1222.95	101.765
1225.84	28.7246
1228.73	22.2314
1231.62	14.999
1234.52	67.8272
1237.41	55.3545
1240.3	6.90234
