Measurement: Raman, 532 nm, unoriented, Raman Data Processed
Mineral: Vesuvianite
Rruff sample: R050489
Ideal chemistry: (Ca,Na)_19_(Al,Mg,Fe)_13_(SiO_4_)_10_(Si_2_O_7_)_4_(OH,F,O)_10_
Locality: Crestmore Quarry, Riverside County, California, USA
Source: California Institute of Technology
Description: Green prismatic crystal
Measured chemistry: Ca_19.00_(Al_9.56_Mg_2.36_Fe^2+^_0.86_Ti_0.22_)_Σ=13_Si_18.00_O_68_((OH)_9.59_F_0.41_)_Σ=10_ ; B not measured
Raman shift (cm-1)	intensity
145.969	0
149.344	9.85742
152.719	14.5187
156.094	75.12
159.468	137.766
162.843	178.538
166.218	205.02
169.593	213.443
172.968	231.635
176.343	248.499
179.717	223.621
183.092	176.803
186.467	140.207
189.842	65.8466
193.217	42.5652
196.591	0.699463
199.966	4.92694
203.341	5.17047
206.716	38.2513
210.091	82.4318
213.465	113.353
216.84	144.157
220.215	166.134
223.59	166.948
226.965	113.368
230.339	54.799
233.714	0.340836
237.089	0.467896
240.464	4.15927
243.839	4.20154
247.214	4.81377
250.588	45.3209
253.963	95.2228
257.338	59.8673
260.713	7.99473
264.088	49.1967
267.462	62.1097
270.837	73.1579
274.212	56.4823
277.587	47.9104
280.962	113.024
284.337	162.771
287.711	205.437
291.086	216.803
294.461	179.462
297.836	147.804
301.211	132.906
304.586	146.54
307.96	146.435
311.335	154.372
314.71	149.252
318.085	159.081
321.46	137.524
324.834	128.471
328.209	112.306
331.584	70.9741
334.959	20.7372
338.334	2.81907
341.709	3.30986
345.083	7.83771
348.458	15.0954
351.833	43.7373
355.208	61.9844
358.583	76.4174
361.957	77.9874
365.332	80.0968
368.707	80.8814
372.082	100.875
375.457	108.576
378.832	115.28
382.206	131.178
385.581	178.897
388.956	240.28
392.331	314.285
395.705	392.988
399.08	454.144
402.455	490.665
405.83	527.314
409.205	521.275
412.58	457.401
415.954	366.228
419.329	249.286
422.704	174.286
426.079	104.587
429.454	59.158
432.829	15.1813
436.203	9.83901
439.578	1.55737
442.953	0.566765
446.328	4.58685
449.703	1.69138
453.077	0.84587
456.452	7.69629
459.827	36.651
463.202	72.7488
466.577	111.06
469.952	125.128
473.326	146.896
476.701	146.392
480.076	160
483.451	142.566
486.826	132.512
490.2	128.035
493.575	117.726
496.95	111.966
500.325	117.236
503.7	98.2045
507.075	84.2716
510.449	72.8495
513.824	47.5636
517.199	6.56641
520.574	1.64787
523.949	1.62463
527.323	8.15136
530.698	1.40257
534.073	1.11471
537.448	3.70045
540.823	26.1267
544.197	27.9317
547.572	5.2969
550.947	2.37495
554.322	6.04238
557.697	3.39681
561.072	4.91245
564.446	5.93322
567.821	16.3009
571.196	46.5306
574.571	90.0677
577.946	116.403
581.321	170.958
584.695	207.979
588.07	253.554
591.445	261.885
594.82	275.212
598.194	277.37
601.569	307.184
604.944	331.017
608.319	352.56
611.694	363.013
615.069	385.194
618.443	424.132
621.818	500.063
625.193	629.174
628.568	768.346
631.943	880.9
635.317	924.944
638.692	885.231
642.067	716.025
645.442	494.886
648.817	296.691
652.192	150.805
655.566	52.828
658.941	8.49073
662.316	15.466
665.691	10.5721
669.066	1.88583
672.441	25.1415
675.815	31.4967
679.19	87.051
682.565	159.011
685.94	219.652
689.315	308.758
692.689	364.065
696.064	361.757
699.439	267.513
702.814	149.785
706.189	68.3335
709.563	33.4154
712.938	18.9804
716.313	4.97569
719.688	0.911219
723.063	4.9233
726.438	7.67209
729.812	26.1761
733.187	41.7175
736.562	73.4584
739.937	102.341
743.312	134.589
746.687	142.846
750.061	131.598
753.436	142.232
756.811	136.936
760.186	92.3491
763.561	85.192
766.935	61.0417
770.31	43.1728
773.685	38.6493
777.06	35.6941
780.435	28.2978
783.809	18.3187
787.184	16.9979
790.559	22.4949
793.934	59.6256
797.309	60.9307
800.683	52.3594
804.058	37.9153
807.433	20.8824
810.808	5.79953
814.183	5.23775
817.558	0.469675
820.932	0.467247
824.307	3.79337
827.682	4.94313
831.057	16.7755
834.432	7.1692
837.807	41.1092
841.181	87.1552
844.556	147.32
847.931	205.505
851.306	264.14
854.681	338.18
858.055	364.103
861.43	358.14
864.805	279.869
868.18	227.878
871.555	192.683
874.929	159.973
878.304	155.895
881.679	133.741
885.054	122.148
888.429	88.8662
891.804	58.3893
895.178	29.0849
898.553	18.4543
901.928	39.5478
905.303	53.3653
908.678	88.4365
912.053	130.407
915.427	203.202
918.802	310.486
922.177	397.261
925.552	478.484
928.927	510.452
932.301	504.621
935.676	485.873
939.051	444.962
942.426	378.907
945.801	325.398
949.176	282.877
952.55	246.971
955.925	223.657
959.3	203.986
962.675	205.593
966.05	181.248
969.424	168.297
972.799	122.495
976.174	116.107
979.549	111.476
982.924	74.7319
986.298	9.09729
989.673	21.078
993.048	12.8096
996.423	4.46007
999.798	1.07198
1003.17	11.1877
1006.55	7.65696
1009.92	25.0474
1013.3	35.1029
1016.67	63.7865
1020.05	92.3964
1023.42	99.9426
1026.8	104.737
1030.17	116.202
1033.55	109.162
1036.92	139.273
1040.3	119.191
1043.67	115.657
1047.05	98.4355
1050.42	53.26
1053.8	29.3552
1057.17	17.6766
1060.54	0.050444
1063.92	1.61923
1067.29	1.35382
1070.67	7.12767
1074.04	2.24358
1077.42	17.7423
1080.79	15.1263
1084.17	22.7678
1087.54	1.41098
1090.92	0.48517
1094.29	8.16827
1097.67	25.5514
1101.04	63.4069
1104.42	63.5899
1107.79	44.5996
1111.17	46.4335
1114.54	55.1765
1117.92	43.7826
1121.29	41.2834
1124.67	27.2884
1128.04	48.2015
1131.42	35.9878
1134.79	40.6612
1138.16	42.5588
1141.54	26.1686
1144.91	21.8057
1148.29	25.3723
1151.66	14.5761
1155.04	14.9478
1158.41	7.46687
1161.79	5.55617
1165.16	13.0694
1168.54	18.6191
1171.91	8.79779
1175.29	17.8485
1178.66	11.0392
1182.04	15.3513
1185.41	4.84854
1188.79	6.46755
1192.16	11.1397
1195.54	0.488873
1198.91	23.2541
1202.29	24.0441
1205.66	9.45875
1209.04	1.32591
1212.41	20.866
1215.79	34.0791
1219.16	10.9308
1222.54	23.3649
1225.91	23.7233
1229.29	14.8151
1232.66	5.27202
1236.04	0.134451
1239.41	19.1851
1242.79	0.381805
1246.16	4.77704
1249.53	24.2925
1252.91	7.84579
1256.28	1.09599
1259.66	10.1143
1263.03	15.6787
1266.41	1.46509
1269.78	13.9211
1273.16	7.24524
1276.53	29.276
1279.91	24.2449
1283.28	10.7926
1286.66	11.1147
1290.03	20.6701
1293.41	2.06142
1296.78	10.0335
1300.16	4.3187
1303.53	0
