Measurement: Raman, 532 nm, unoriented, Raman Data Processed
Mineral: Vesuvianite
Rruff sample: R060902
Ideal chemistry: (Ca,Na)_19_(Al,Mg,Fe)_13_(SiO_4_)_10_(Si_2_O_7_)_4_(OH,F,O)_10_
Locality: Jeffrey mine, Asbestos, Quebec, Canada
Source: Michael Scott
Description: Purple equant, doubly terminated prismatic single crystals.
Raman shift (cm-1)	intensity
131.861	0
135.236	171.304
138.611	237.616
141.986	94.8972
145.36	39.9775
148.735	26.118
152.11	147.335
155.485	250.012
158.86	296.455
162.234	337.423
165.609	453.651
168.984	787.648
172.359	1094.7
175.734	1315.59
179.109	1477.01
182.483	1634.92
185.858	1853.64
189.233	1760.66
192.608	1095.3
195.983	557.93
199.357	338.297
202.732	258.23
206.107	247.391
209.482	433.658
212.857	656.858
216.232	739.423
219.606	926.547
222.981	1298.98
226.356	1697.79
229.731	1876.42
233.106	1607.47
236.48	1117.07
239.855	981.868
243.23	798.937
246.605	705.415
249.98	865.458
253.355	1204.61
256.729	1751.66
260.104	1801.76
263.479	931.589
266.854	285.011
270.228	58.1121
273.603	-11.3327
276.978	4.48744
280.353	19.9745
283.728	6.66846
287.103	218.686
290.477	447.469
293.852	646.279
297.227	615.463
300.602	437.912
303.977	390.606
307.351	378.096
310.726	527.516
314.101	788.101
317.476	1158.32
320.851	1495.54
324.226	1484.53
327.6	1513.65
330.975	1593.85
334.35	1683.73
337.725	1413.37
341.1	810.761
344.474	287.397
347.849	16.1794
351.224	31.917
354.599	170.431
357.974	292.255
361.349	548.788
364.723	715.628
368.098	835.048
371.473	812.199
374.848	787.212
378.223	561.09
381.597	448.138
384.972	441.263
388.347	725.737
391.722	1150.85
395.097	1815.2
398.471	2767.99
401.846	3983.98
405.221	5131.2
408.596	5154.16
411.971	3973.66
415.346	2841.08
418.72	1972.41
422.095	1342.62
425.47	978.443
428.845	663.717
432.22	348.289
435.594	126.987
438.969	10.7434
442.344	14.6113
445.719	71.3879
449.094	25.302
452.469	27.9148
455.843	58.8257
459.218	20.8191
462.593	58.6855
465.968	33.5127
469.343	140.513
472.717	290.857
476.092	516.795
479.467	820.999
482.842	1049.88
486.217	1017.28
489.591	757.256
492.966	514.462
496.341	511.087
499.716	494.575
503.091	495.26
506.466	568.583
509.84	640.406
513.215	705.469
516.59	638.024
519.965	538.77
523.34	382.599
526.714	219.09
530.089	138.257
533.464	53.8159
536.839	94.5884
540.214	150.366
543.588	231.503
546.963	258.862
550.338	273.051
553.713	177.687
557.088	21.1106
560.462	3.0151
563.837	5.86512
567.212	8.58551
570.587	6.18755
573.962	72.8213
577.337	142
580.711	328.227
584.086	614.583
587.461	919.229
590.836	1195.74
594.211	1273.38
597.585	989.256
600.96	718.601
604.335	469.85
607.71	373.344
611.085	386.635
614.46	518.974
617.834	476.804
621.209	364.592
624.584	323.069
627.959	303.003
631.334	286.827
634.708	292.568
638.083	247.05
641.458	296.885
644.833	342.786
648.208	373.455
651.582	308.226
654.957	136.315
658.332	57.4582
661.707	7.76318
665.082	60.697
668.457	155.995
671.831	268.483
675.206	439.09
678.581	699.598
681.956	1281.85
685.331	2063.74
688.705	2865.85
692.08	3166.23
695.455	2485.98
698.83	1419.43
702.205	725.814
705.58	326.004
708.954	152.035
712.329	46.2009
715.704	35.6934
719.079	19.9111
722.454	14.9739
725.828	61.0947
729.203	82.2849
732.578	87.3076
735.953	145.895
739.328	133.064
742.702	180.296
746.077	157.403
749.452	164.861
752.827	147.4
756.202	117.026
759.577	102.77
762.951	92.1919
766.326	59.4133
769.701	47.5044
773.076	25.8574
776.451	36.3601
779.825	12.5264
783.2	4.04834
786.575	14.855
789.95	24.2659
793.325	34.0855
796.699	18.929
800.074	13.491
803.449	49.9685
806.824	90.5537
810.199	137.519
813.573	122.071
816.948	106.111
820.323	77.0293
823.698	19.0601
827.073	1.75594
830.448	7.56276
833.822	8.208
837.197	105.99
840.572	269.813
843.947	578.469
847.322	1056.04
850.697	1672.55
854.071	2105.73
857.446	2399.61
860.821	2529.85
864.196	2445.04
867.571	2320.07
870.945	2152.74
874.32	1917.48
877.695	1739.62
881.07	1582.66
884.445	1436.59
887.819	1278.72
891.194	1146.62
894.569	1166.13
897.944	1147.23
901.319	1224
904.693	1354.61
908.068	1661.69
911.443	1992.58
914.818	2526.98
918.193	3449.83
921.568	4388.98
924.942	5159.38
928.317	5091.59
931.692	4247.56
935.067	3192.85
938.442	2361.12
941.817	1819.56
945.191	1379.58
948.566	1214.16
951.941	1184.79
955.316	1349.07
958.691	1491.34
962.065	1453.38
965.44	1207.86
968.815	831.043
972.19	526.656
975.565	307.14
978.939	212.675
982.314	145.904
985.689	39.0806
989.064	-0.602191
992.439	5.5787
995.813	11.6425
999.188	0.687087
1002.56	6.26022
1005.94	63.6848
1009.31	187.573
1012.69	329.718
1016.06	485.322
1019.44	695.25
1022.81	758.813
1026.19	848.42
1029.56	910.145
1032.94	1006.64
1036.31	1180.51
1039.69	1329.74
1043.06	1251.59
1046.44	1022.72
1049.81	706.918
1053.18	410.712
1056.56	309.197
1059.93	157.307
1063.31	128.345
1066.68	127.951
1070.06	115.662
1073.43	79.5691
1076.81	69.0698
1080.18	13.3462
1083.56	38.4919
1086.93	31.447
1090.31	6.70483
1093.68	5.11377
1097.06	37.519
1100.43	19.7085
1103.81	29.0044
1107.18	46.3596
1110.56	51.0693
1113.93	69.4912
1117.31	52.6457
1120.68	73.6211
1124.06	72.8784
1127.43	70.9983
1130.81	69.55
1134.18	105.843
1137.56	98.3865
1140.93	83.2031
1144.31	88.8225
1147.68	64.6802
1151.06	59.8281
1154.43	73.3645
1157.81	64.1384
1161.18	44.3049
1164.55	65.3564
1167.93	9.88257
1171.3	13.5378
1174.68	37.5142
1178.05	14.9121
1181.43	9.11182
1184.8	22.0757
1188.18	34.8511
1191.55	53.8162
1194.93	51.3538
1198.3	16.3835
1201.68	33.3323
1205.05	32.6228
1208.43	40.8574
1211.8	41.2815
1215.18	40.9377
1218.55	8.56519
1221.93	15.3081
1225.3	12.2783
1228.68	33.3977
1232.05	51.4209
1235.42	0.74707
1238.8	7.10596
1242.17	35.7993
1245.55	4.59326
1248.92	9.07251
1252.3	37.626
1255.67	19.3928
1259.05	52.9387
1262.42	40.042
1265.8	20.4038
1269.17	12.7058
1272.55	18.0139
1275.92	11.8933
1279.3	0.586426
1282.67	24.5183
1286.05	59.7173
1289.42	45.5886
1292.8	12.0447
1296.17	43.6255
1299.55	58.9233
1302.92	25.5657
