Measurement: Raman, 532 nm, unoriented, Raman Data Processed
Mineral: Veszelyite
Rruff sample: R070312
Ideal chemistry: Cu^2+^_3_PO_4_(OH)_3_2H_2_O
Locality: Black Pine mine, Flint Creek Valley, near Philipsburg, Granite County, Montana, USA
Source: James Shigley
Description: Blue prismatic crystals associated with pyromorphite and quartz
Measured chemistry: (Cu^2+^_1.79_Zn_1.21_)_Σ=3_(P_1.00_O_4_)(OH)_3_·2H_2_O; H_2_O estimated by difference; OH by charge balance
Raman shift (cm-1)	intensity
138.573	0
141.948	32.2647
145.323	297.312
148.698	784.451
152.072	1905.32
155.447	2440.55
158.822	1867.34
162.197	1226.45
165.572	999.048
168.946	1252.73
172.321	1743.02
175.696	1893.55
179.071	1776.88
182.446	2456.23
185.821	3511.55
189.195	4059.98
192.57	3554.19
195.945	2696.9
199.32	1849.39
202.695	1100.63
206.07	617.295
209.444	248.967
212.819	45.0068
216.194	81.874
219.569	80.1013
222.944	30.5569
226.318	175.652
229.693	492.377
233.068	1202.25
236.443	2172.69
239.818	2436.34
243.192	2229.95
246.567	1697.81
249.942	1094.05
253.317	850.193
256.692	1048.61
260.067	1365.28
263.441	1376.2
266.816	1122.93
270.191	1114.93
273.566	1099.29
276.941	1098.54
280.315	972.077
283.69	766.214
287.065	524.765
290.44	294.425
293.815	89.5669
297.19	2.4397
300.564	59.085
303.939	9.98291
307.314	37.6414
310.689	15.9319
314.064	26.6311
317.438	100.536
320.813	191.9
324.188	306.772
327.563	410.638
330.938	485.065
334.313	556.409
337.687	528.142
341.062	514.274
344.437	535.41
347.812	514.436
351.187	724.645
354.562	1057.52
357.936	1439.67
361.311	1865.97
364.686	2259.54
368.061	2589.05
371.436	2997.12
374.81	3406.53
378.185	3580.51
381.56	3322.39
384.935	2908.44
388.31	2527.61
391.685	2014.24
395.059	1622.26
398.434	1315.53
401.809	1099.1
405.184	891.719
408.559	578.728
411.933	301.022
415.308	50.3291
418.683	70.3162
422.058	100.363
425.433	62.5632
428.808	2.87891
432.182	66.033
435.557	90.1934
438.932	63.6668
442.307	97.511
445.682	139.615
449.056	170.936
452.431	330.926
455.806	605.073
459.181	1157.06
462.556	2063.51
465.93	3089.98
469.305	3932.16
472.68	4266.04
476.055	4533.26
479.43	4932.65
482.805	5444.44
486.179	5828.52
489.554	5336.31
492.929	4478.74
496.304	3560.41
499.679	2886.54
503.053	2137.84
506.428	1603.05
509.803	1249.57
513.178	1073.36
516.553	946.121
519.928	1007.19
523.302	1199.92
526.677	1387.56
530.052	1566.52
533.427	1738.17
536.802	1733.32
540.177	1594.4
543.551	1496.01
546.926	1273.08
550.301	1311.22
553.676	1432.54
557.051	1221.01
560.425	640.082
563.8	228.561
567.175	20.1858
570.55	20.3442
573.925	59.4351
577.299	37.1108
580.674	62.9194
584.049	13.9646
587.424	19.0847
590.799	59.4731
594.174	138.615
597.548	214.053
600.923	309.699
604.298	468.431
607.673	713.121
611.048	1000.38
614.423	1351.54
617.797	1647.55
621.172	1815.15
624.547	1748.06
627.922	1456
631.297	1104.99
634.671	760.177
638.046	525.632
641.421	346.679
644.796	208.647
648.171	156.012
651.545	143.882
654.92	120.379
658.295	89.9209
661.67	95.2705
665.045	64.1105
668.42	81.8888
671.794	63.4471
675.169	68.7836
678.544	51.26
681.919	19.5608
685.294	2.07629
688.668	25.2689
692.043	15.8049
695.418	5.04993
698.793	8.21912
702.168	26.6801
705.543	6.96533
708.917	20.9696
712.292	38.7427
715.667	18.8856
719.042	30.2487
722.417	18.7256
725.792	31.0331
729.166	47.1641
732.541	72.2161
735.916	107.538
739.291	119.936
742.666	122.995
746.04	110.436
749.415	96.589
752.79	115.286
756.165	99.0977
759.54	115.432
762.915	89
766.289	71.2826
769.664	73.84
773.039	60.3151
776.414	51.979
779.789	29.0909
783.163	29.2159
786.538	18.9875
789.913	17.4579
793.288	1.94287
796.663	11.3407
800.038	14.458
803.412	3.31055
806.787	41.6661
810.162	90.0161
813.537	240.042
816.912	474.83
820.286	383.179
823.661	320.254
827.036	294.53
830.411	305.272
833.786	298.043
837.16	335.828
840.535	318.219
843.91	334.923
847.285	282.9
850.66	257.904
854.035	281.367
857.409	269.572
860.784	278.801
864.159	294.862
867.534	295.5
870.909	258.666
874.284	213.841
877.658	153.991
881.033	113.477
884.408	116.54
887.783	91.1851
891.158	52.7058
894.533	12.2322
897.907	5.86401
901.282	28.8945
904.657	3.72925
908.032	49.5649
911.407	229.258
914.781	406.489
918.156	724.472
921.531	826.187
924.906	884.241
928.281	827.871
931.655	837.803
935.03	818.432
938.405	934.543
941.78	1093.51
945.155	1236.4
948.529	1453.73
951.904	1855.57
955.279	2919.61
958.654	5025.26
962.029	8383.45
965.404	10692.5
968.778	6936.8
972.153	2837.37
975.528	1161.17
978.903	510.889
982.278	232.125
985.653	80.3884
989.027	21.1394
992.402	23.533
995.777	1.47217
999.152	60.4374
1002.53	128.228
1005.9	239.703
1009.28	424.792
1012.65	638.621
1016.03	840.293
1019.4	1030.33
1022.78	1201.19
1026.15	1268.02
1029.53	1333.82
1032.9	1562.29
1036.28	1908.91
1039.65	2424.72
1043.02	2884.34
1046.4	2679.49
1049.77	1804.56
1053.15	932.091
1056.52	458.842
1059.9	231.907
1063.27	98.1669
1066.65	42.3412
1070.02	29.5366
1073.4	9.35144
1076.77	9.95117
1080.15	10.0543
1083.52	22.3072
1086.9	5.42603
1090.27	20.7595
1093.65	50.5699
1097.02	68.9269
1100.4	108.134
1103.77	159.551
1107.15	166.433
1110.52	196.612
1113.9	170.385
1117.27	130.923
1120.64	96.6317
1124.02	84.7677
1127.39	86.9325
1130.77	61.1496
1134.14	66.4116
1137.52	62.6878
1140.89	40.3514
1144.27	30.2278
1147.64	23.7334
1151.02	26.044
1154.39	10.616
1157.77	13.4133
1161.14	11.8396
1164.52	28.8226
1167.89	17.6379
1171.27	24.2035
1174.64	22.1761
1178.02	43.8462
1181.39	28.2287
1184.77	63.0166
1188.14	28.9959
1191.52	50.4238
1194.89	43.3757
1198.27	2.85138
1201.64	15.9141
1205.02	19.1166
1208.39	15.0009
1211.77	29.3479
1215.14	12.8944
1218.52	0.864014
1221.89	15.6824
1225.27	10.773
1228.64	4.52808
1232.01	20.634
1235.39	23.399
1238.76	14.2558
1242.14	37.3433
1245.51	54.2325
1248.89	22.2947
1252.26	14.6816
1255.64	34.178
1259.01	46.0811
1262.39	53.1785
1265.76	21.5818
1269.14	21.5978
1272.51	31.0394
1275.89	25.4799
1279.26	6.17804
1282.64	8.75153
1286.01	10.9526
1289.39	30.1
1292.76	40.7241
1296.14	23.153
1299.51	23.8742
1302.88	0.033691
