Measurement: Raman, 780 nm, unoriented, Raman Data Processed
Mineral: Vigezzite
Rruff sample: R120158
Ideal chemistry: (Ca,Ce)(Nb,Ta,Ti)_2_O_6_
Locality: Alpe Rosso, Orcesco, Vigezzo Valley, Novara, Italy
Description: Single transparent brown prismatic crystal on ?????
Raman shift (cm-1)	intensity
217.996	0
220.889	3.48108
223.782	2.49976
226.674	3.01965
229.567	1.29199
232.46	2.09815
235.352	7.42725
238.245	13.5842
241.138	8.90356
244.03	15.2495
246.923	22.1288
249.816	27.6257
252.709	30.4487
255.601	33.9175
258.494	39.5198
261.387	46.802
264.279	52.8577
267.172	63.0027
270.065	69.8272
272.957	75.5867
275.85	80.2703
278.743	85.2391
281.635	88.0858
284.528	90.8524
287.421	93.2656
290.314	99.209
293.206	98.3353
296.099	96.2474
298.992	92.4553
301.884	90.897
304.777	86.8226
307.67	89.8926
310.562	83.304
313.455	82.0773
316.348	75.9594
319.241	71.1274
322.133	65.8909
325.026	58.425
327.919	55.8419
330.811	51.5261
333.704	46.6176
336.597	45.143
339.49	40.2723
342.382	35.2494
345.275	30.0804
348.168	26.9799
351.06	22.2785
353.953	18.8196
356.846	18.2995
359.738	14.8735
362.631	12.2131
365.524	10.3378
368.416	8.84241
371.309	4.71606
374.202	2.04596
377.095	4.72876
379.987	7.46472
382.88	4.23218
385.773	0.871338
388.665	1.78418
391.558	2.09039
394.451	1.64209
397.344	1.97388
400.236	0.866394
403.129	0.052612
406.022	2.57556
408.914	0.654541
411.807	0.656738
414.7	2.47662
417.592	4.16675
420.485	4.80005
423.378	0.48175
426.27	2.05804
429.163	1.32166
432.056	3.29126
434.949	3.21045
437.841	1.73987
440.734	0.50415
443.627	2.14496
446.519	3.10394
449.412	4.11847
452.305	2.27893
455.197	6.02319
458.09	4.8526
460.983	4.30505
463.875	0.286438
466.768	1.18744
469.661	0.870178
472.554	4.27087
475.446	4.42432
478.339	5.86627
481.232	6.2962
484.124	5.21887
487.017	4.10535
489.91	7.61835
492.803	6.60132
495.695	13.6025
498.588	18.1367
501.481	20.9054
504.373	26.7955
507.266	31.5888
510.159	27.109
513.051	22.0246
515.944	21.8196
518.837	17.8048
521.73	14.4131
524.622	11.66
527.515	11.0925
530.408	9.93945
533.3	8.35925
536.193	6.21136
539.086	5.9375
541.978	6.39911
544.871	2.83575
547.764	3.51556
550.656	0.649658
553.549	0.281555
556.442	2.19379
559.335	0.530457
562.227	0.376404
565.12	0.188721
568.013	3.43158
570.905	0.015503
573.798	1.62347
576.691	1.02393
579.583	8.34766
582.476	10.2695
585.369	16.8178
588.261	20.4108
591.154	26.5956
594.047	30.3807
596.94	34.194
599.832	38.9624
602.725	49.2661
605.618	56.6346
608.51	63.2405
611.403	67.3749
614.296	70.7186
617.188	73.3683
620.081	77.1853
622.974	84.8696
625.867	85.44
628.759	91.8015
631.652	95.3825
634.545	97.2011
637.437	98.8186
640.33	96.1883
643.223	96.417
646.115	93.9169
649.008	95.3813
651.901	91.9732
654.794	90.6278
657.686	88.9824
660.579	88.5992
663.472	82.3571
666.364	80.4969
669.257	74.0674
672.15	68.2691
675.043	61.9578
677.935	54.8875
680.828	44.5602
683.721	41.9611
686.613	33.7485
689.506	29.4409
692.399	19.8306
695.291	14.1229
698.184	9.40729
701.077	7.61316
703.97	0.943237
706.862	0.528442
709.755	3.99725
712.648	3.1767
715.54	6.85321
718.433	2.25836
721.326	4.55542
724.218	3.75501
727.111	0.927307
730.004	1.64032
732.896	5.50372
735.789	8.34772
738.682	18.1839
741.574	22.5357
744.467	29.629
747.36	39.5579
750.253	45.6254
753.145	50.825
756.038	58.2022
758.931	66.048
761.823	77.0164
764.716	85.4905
767.609	90.8244
770.501	96.3158
773.394	100.92
776.287	107.428
779.18	112.166
782.072	116.777
784.965	122.8
787.858	128.017
790.75	135.262
793.643	134.046
796.536	133.597
799.428	131.359
802.321	128.338
805.214	128.48
808.107	128.006
810.999	123.96
813.892	117.855
816.785	113.943
819.677	111.44
822.57	106.821
825.463	97.5574
828.356	93.103
831.248	87.419
834.141	81.7257
837.034	75.2154
839.926	68.0864
842.819	65.887
845.712	60.3749
848.604	53.5686
851.497	50.4221
854.39	43.0623
857.283	43.1042
860.175	35.4047
863.068	34.6351
865.961	30.4214
868.853	28.9422
871.746	26.8189
874.639	23.4399
877.531	21.1035
880.424	18.5972
883.317	16.3143
886.209	18.2176
889.102	14.2742
891.995	10.9938
894.888	8.93875
897.78	7.51065
900.673	3.75467
903.566	2.35898
906.458	0.428131
909.351	3.70779
912.244	2.5838
915.136	2.83575
918.029	2.54129
920.922	3.04643
923.814	4.97234
926.707	2.94005
929.6	2.64246
932.493	2.01222
935.385	0.974991
938.278	2.8058
941.171	1.15178
944.063	2.25555
946.956	3.66818
949.849	6.4323
952.741	9.30151
955.634	12.7145
958.527	13.2998
961.42	13.5789
964.312	16.9344
967.205	20.2405
970.098	21.0741
972.99	23.2333
975.883	25.1507
978.776	24.7784
981.668	27.0511
984.561	22.7653
987.454	22.5404
990.347	22.7041
993.239	22.6136
996.132	21.33
999.025	21.168
1001.92	19.1425
1004.81	18.0931
1007.7	18.0752
1010.6	17.2945
1013.49	16.0594
1016.38	16.1394
1019.27	14.7306
1022.17	13.4769
1025.06	12.9218
1027.95	14.3504
1030.84	13.1307
1033.74	10.756
1036.63	10.8563
1039.52	9.91084
1042.41	10.5336
1045.31	8.00009
1048.2	8.07953
1051.09	8.22401
1053.99	7.86303
1056.88	7.19244
1059.77	6.38684
1062.66	5.81711
1065.56	6.08327
1068.45	5.09793
1071.34	3.98618
1074.23	4.65172
1077.13	3.2652
1080.02	3.20628
1082.91	2.58406
1085.81	2.50237
1088.7	4.06276
1091.59	3.06471
1094.48	2.24768
1097.38	1.79681
1100.27	2.32106
1103.16	1.73863
1106.05	0.440201
1108.95	1.83417
1111.84	0.770737
1114.73	0.344498
1117.62	0.521927
1120.52	0.647957
1123.41	0.552713
1126.3	0.404775
1129.2	0.348838
1132.09	0.618753
1134.98	0.400751
1137.87	0.133536
1140.77	0.559126
1143.66	0.184737
1146.55	0.327929
1149.44	0.277359
1152.34	0.0880286
1155.23	0.104531
1158.12	0.684288
1161.02	0.428509
1163.91	0.227572
1166.8	0.452727
1169.69	0.0793144
1172.59	0.190583
1175.48	0.487901
1178.37	0.519568
1181.27	0.245314
1184.16	0.541446
1187.05	0.858551
1189.94	0.360804
1192.84	0.907534
1195.73	0.969154
1198.62	1.01699
1201.51	0.734223
1204.41	0.904148
1207.3	0.596728
1210.19	0.967004
1213.08	1.17408
1215.98	0.907949
1218.87	0.953513
1221.76	1.17143
1224.65	0.725776
1227.55	0.752344
1230.44	0.781009
1233.33	0.730172
1236.23	0.988674
1239.12	0.759242
1242.01	0.766065
1244.9	0.839058
1247.8	1.08791
1250.69	1.13692
1253.58	0.600515
1256.47	1.00046
1259.37	0.466137
1262.26	0.958532
1265.15	0.718246
1268.05	0.876175
1270.94	0.498604
1273.83	0.388267
1276.72	0.713255
1279.62	0.219444
1282.51	0.782959
