Measurement: Raman, 532 nm, unoriented, Raman Data Processed
Mineral: Vigezzite
Rruff sample: R060584
Ideal chemistry: (Ca,Ce)(Nb,Ta,Ti)_2_O_6_
Locality: Jacupiranga mine, Cajati, SÃ£o Paulo, Southeast Region, Brazil
Source: Luiz Menezes and Michael Scott
Description: Brown flattened plates on white calcite
Raman shift (cm-1)	intensity
175.827	0.525208
178.72	72.7017
181.612	176.264
184.505	315.736
187.398	454.612
190.29	577.039
193.183	679.843
196.076	719.165
198.968	686.947
201.861	613.696
204.754	534.508
207.647	473.307
210.539	409.737
213.432	348.75
216.325	284.297
219.217	239.077
222.11	204.542
225.003	186.104
227.895	177.958
230.788	175.015
233.681	158.288
236.573	129.29
239.466	100.881
242.359	76.8346
245.252	69.825
248.144	78.0592
251.037	98.507
253.93	141.342
256.822	208.909
259.715	293.236
262.608	393.3
265.5	524.282
268.393	656.391
271.286	788.394
274.179	891.67
277.071	929.795
279.964	890.698
282.857	781.827
285.75	660.139
288.642	541.117
291.535	438.392
294.428	352.383
297.32	277.824
300.213	224.795
303.106	174.977
305.998	139.467
308.891	111.507
311.784	79.9393
314.676	63.7321
317.569	43.9163
320.462	23.9309
323.355	17.5548
326.247	12.635
329.14	2.98267
332.033	3.74316
334.925	4.15332
337.818	4.90576
340.711	5.78235
343.603	7.05737
346.496	18.9237
349.389	13.981
352.281	13.1332
355.174	6.40906
358.067	5.10693
360.96	1.13098
363.852	4.56628
366.745	12.783
369.638	23.6626
372.53	37.2921
375.423	44.0275
378.316	54.3423
381.209	62.0968
384.101	75.9253
386.994	88.7415
389.887	82.2028
392.779	82.4874
395.672	78.4849
398.565	78.9981
401.457	73.0297
404.35	71.9707
407.243	69.3114
410.135	68.0824
413.028	65.8053
415.921	63.3195
418.814	65.8287
421.706	67.9979
424.599	73.2358
427.492	83.8799
430.384	100.048
433.277	101.287
436.17	111.75
439.062	119.87
441.955	124.368
444.848	122.331
447.741	121.862
450.633	119.775
453.526	110.457
456.419	108.363
459.311	104.393
462.204	95.342
465.097	89.313
467.99	74.6805
470.882	67.2129
473.775	52.7074
476.668	43.4202
479.56	37.365
482.453	25.9047
485.346	16.5718
488.238	10.432
491.131	5.65955
494.024	3.8905
496.916	3.80768
499.809	2.62372
502.702	1.72833
505.595	1.94769
508.487	1.64087
511.38	0.860535
514.273	3.17065
517.165	2.04645
520.058	5.31982
522.951	5.90771
525.844	8.19733
528.736	10.2159
531.629	12.1867
534.522	8.92853
537.414	9.12598
540.307	11.1486
543.2	13.5232
546.092	11.1829
548.985	12.3583
551.878	11.1868
554.771	9.27801
557.663	8.29852
560.556	5.25421
563.449	2.55676
566.341	5.77905
569.234	1.30188
572.127	0.412415
575.019	2.03192
577.912	2.95294
580.805	1.6015
583.697	0.016052
586.59	0.210205
589.483	0.603394
592.376	0.565308
595.268	2.5354
598.161	0.637085
601.054	0.590576
603.946	1.15723
606.839	8.51489
609.732	9.14111
612.625	12.5343
615.517	17.5135
618.41	22.2302
621.303	31.817
624.195	41.2598
627.088	46.6295
629.981	61.1511
632.873	76.9539
635.766	96.178
638.659	120.153
641.552	143.26
644.444	170.461
647.337	203.506
650.23	231.747
653.122	272.76
656.015	303.945
658.908	343.656
661.8	367.031
664.693	389.983
667.586	406.004
670.479	418.721
673.371	411.887
676.264	401.078
679.157	380.889
682.049	360.542
684.942	327.044
687.835	288.061
690.727	249.275
693.62	213.769
696.513	179.705
699.405	145.785
702.298	108.342
705.191	82.9038
708.084	63.6316
710.976	51.0052
713.869	31.5998
716.762	13.1585
719.654	1.48242
722.547	6.3302
725.44	3.04321
728.332	5.29456
731.225	8.0083
734.118	5.77454
737.011	9.87354
739.903	3.13916
742.796	1.1792
745.689	8.78809
748.581	14.0472
751.474	25.9596
754.367	37.3744
757.26	45.4853
760.152	51.7446
763.045	63.7245
765.938	67.4672
768.83	76.5801
771.723	79.7174
774.616	86.4943
777.508	93.222
780.401	94.7083
783.294	94.234
786.187	94.6083
789.079	90.7008
791.972	89.0701
794.865	87.4642
797.757	77.8588
800.65	78.2742
803.543	73.5129
806.435	74.8176
809.328	68.2462
812.221	68.5176
815.114	64.048
818.006	62.8273
820.899	63.3438
823.792	67.5713
826.684	66.7001
829.577	69.5239
832.47	74.2184
835.362	88.547
838.255	92.3994
841.148	107.614
844.04	121.773
846.933	141.408
849.826	163.537
852.719	174.809
855.611	195.601
858.504	217.525
861.397	239.517
864.289	252.78
867.182	265.853
870.075	276.639
872.967	283.913
875.86	286.639
878.753	275.188
881.646	267.62
884.538	253.702
887.431	230.463
890.324	206.552
893.216	173.99
896.109	145.703
899.002	114.653
901.894	87.9581
904.787	62.4246
907.68	44.3151
910.573	28.7252
913.465	14.1708
916.358	11.0258
919.251	0.58905
922.143	5.92133
925.036	6.9646
927.929	4.83527
930.822	5.62384
933.714	5.84534
936.607	4.82575
939.5	3.22644
942.392	2.48431
945.285	5.11615
948.178	12.8926
951.07	12.9886
953.963	16.4006
956.856	18.5679
959.749	24.2612
962.641	23.3681
965.534	29.4985
968.427	31.2284
971.319	34.0831
974.212	34.8048
977.105	41.5813
979.997	45.6416
982.89	43.3957
985.783	39.9971
988.676	39.7197
991.568	39.2899
994.461	35.6884
997.354	28.9702
1000.25	26.8018
1003.14	23.7029
1006.03	22.9437
1008.92	23.6401
1011.82	22.3072
1014.71	17.3051
1017.6	19.3131
1020.5	20.928
1023.39	18.502
1026.28	15.0905
1029.17	16.3341
1032.07	16.3657
1034.96	17.6596
1037.85	15.1924
1040.74	11.0897
1043.64	10.462
1046.53	10.0434
1049.42	10.8863
1052.32	10.7675
1055.21	11.241
1058.1	11.4268
1060.99	13.1223
1063.89	9.74048
1066.78	7.35498
1069.67	11.7803
1072.56	7.31464
1075.46	7.14398
1078.35	6.34662
1081.24	2.22858
1084.13	5.50647
1087.03	0.257141
1089.92	0.776001
1092.81	1.10376
1095.7	0.408997
1098.6	5.51093
1101.49	3.95825
1104.38	5.19434
1107.28	1.44098
1110.17	1.16907
1113.06	1.39166
1115.95	2.76233
1118.85	1.9455
1121.74	2.98834
1124.63	1.20227
1127.53	1.95667
1130.42	1.10474
1133.31	0.77179
1136.2	2.06995
1139.1	1.0824
1141.99	0.279541
1144.88	0.371704
1147.77	1.05585
1150.67	1.22302
1153.56	9.43933
1156.45	1.00525
1159.35	1.75586
1162.24	0.113159
1165.13	3.6673
1168.02	3.92279
1170.92	1.74091
1173.81	2.03784
1176.7	5.15631
1179.59	3.77203
1182.49	4.11395
1185.38	5.13361
1188.27	4.46814
1191.16	9.31207
1194.06	4.39142
1196.95	4.7774
1199.84	5.99139
1202.73	4.20227
1205.63	5.46448
1208.52	8.3139
1211.41	7.02246
1214.31	7.02374
1217.2	3.76221
1220.09	2.32654
1222.98	2.08765
1225.88	6.02972
1228.77	3.73285
1231.66	5.2439
1234.56	0.65332
1237.45	1.36237
1240.34	4.47388
1243.23	2.20209
1246.13	3.19794
1249.02	3.84296
1251.91	1.82068
1254.8	4.71161
1257.7	3.40271
1260.59	6.39356
1263.48	7.48022
1266.38	3.66907
1269.27	6.23279
1272.16	3.41949
1275.05	3.56128
1277.95	1.33594
1280.84	0.856079
1283.73	4.13159
1286.62	2.93994
1289.52	4.44617
1292.41	4.49866
1295.3	3.09552
1298.19	4.30286
1301.09	3.14197
