Measurement: Raman, 532 nm, unoriented, Raman Data Processed
Mineral: Vigezzite
Rruff sample: R120158
Ideal chemistry: (Ca,Ce)(Nb,Ta,Ti)_2_O_6_
Locality: Alpe Rosso, Orcesco, Vigezzo Valley, Novara, Italy
Description: Single transparent brown prismatic crystal on ?????
Raman shift (cm-1)	intensity
194.945	0
197.838	30.4934
200.731	35.4838
203.623	23.1372
206.516	2.34485
209.409	0.796143
212.301	7.33069
215.194	27.4065
218.087	29.365
220.98	22.6403
223.872	11.7899
226.765	13.1814
229.658	17.0104
232.55	27.0724
235.443	34.246
238.336	47.5748
241.228	60.796
244.121	68.9749
247.014	74.3813
249.906	84.1724
252.799	93.5072
255.692	111.797
258.585	117.656
261.477	131.984
264.37	139.082
267.263	156.112
270.155	171.019
273.048	180.45
275.941	195.725
278.834	206.917
281.726	211.779
284.619	216.678
287.512	224.849
290.404	225.423
293.297	224.179
296.19	213.017
299.082	207.977
301.975	196.915
304.868	187.158
307.76	173.065
310.653	164.125
313.546	150.466
316.439	134.533
319.331	118.493
322.224	105.447
325.117	91.8159
328.009	87.7687
330.902	71.583
333.795	63.8594
336.688	58.1506
339.58	47.7968
342.473	41.1245
345.366	32.3682
348.258	24.3137
351.151	21.621
354.044	11.4612
356.936	7.71106
359.829	5.3949
362.722	1.77429
365.615	2.66736
368.507	2.2262
371.4	2.73328
374.293	5.77588
377.185	0.826538
380.078	0.439697
382.971	4.14172
385.863	2.35425
388.756	2.5376
391.649	6.46869
394.541	3.40112
397.434	7.38458
400.327	7.28693
403.22	8.68695
406.112	10.3322
409.005	14.3017
411.898	20.7658
414.79	22.7808
417.683	20.3666
420.576	20.1166
423.469	19.047
426.361	17.2464
429.254	16.8996
432.147	11.8076
435.039	13.0992
437.932	10.5011
440.825	10.5051
443.717	10.0662
446.61	7.60303
449.503	8.50385
452.396	6.85315
455.288	1.32349
458.181	0.762512
461.074	0.64856
463.966	0.241577
466.859	4.10852
469.752	3.78357
472.644	0.428955
475.537	2.45172
478.43	6.41693
481.322	13.7153
484.215	20.9105
487.108	33.8828
490.001	47.3176
492.893	67.2949
495.786	82.6483
498.679	102.556
501.571	114.573
504.464	129.347
507.357	138.848
510.25	143.282
513.142	143.262
516.035	142.072
518.928	138.126
521.82	132.902
524.713	130.038
527.606	124.435
530.498	116.12
533.391	113.589
536.284	107.681
539.177	100.89
542.069	87.3483
544.962	77.2686
547.855	68.4309
550.747	60.9791
553.64	49.0437
556.533	33.923
559.425	25.9609
562.318	13.4995
565.211	5.86426
568.104	1.39612
570.996	4.94653
573.889	6.06396
576.782	2.97754
579.674	1.30005
582.567	8.07263
585.46	16.08
588.352	30.1228
591.245	50.65
594.138	65.7339
597.03	82.441
599.923	103.555
602.816	117.559
605.709	135.181
608.601	153.427
611.494	165.905
614.387	182.063
617.279	199.316
620.172	213.002
623.065	216.494
625.957	222.148
628.85	224.889
631.743	227.195
634.636	230.467
637.528	232.433
640.421	231.099
643.314	226.732
646.206	223.691
649.099	221.027
651.992	216.662
654.885	214.643
657.777	211.262
660.67	205.129
663.563	201.17
666.455	188.467
669.348	180.539
672.241	168.441
675.133	154.845
678.026	138.858
680.919	122.487
683.812	102.469
686.704	86.8697
689.597	75.7792
692.49	65.2679
695.382	46.1832
698.275	34.7363
701.168	26.28
704.06	15.5527
706.953	7.43396
709.846	0.636108
712.739	7.66675
715.631	8.94031
718.524	10.4526
721.417	10.0395
724.309	10.7191
727.202	8.27692
730.095	5.80591
732.987	1.01471
735.88	7.85632
738.773	15.3951
741.665	27.6055
744.558	41.3273
747.451	58.4466
750.344	75.336
753.236	85.9197
756.129	105.618
759.022	126.208
761.914	146.205
764.807	172.893
767.7	191.75
770.592	206.746
773.485	228.626
776.378	244.293
779.271	256.333
782.163	268.149
785.056	281.313
787.949	296.49
790.841	309.363
793.734	324.842
796.627	321.532
799.519	325.315
802.412	322.735
805.305	317.746
808.198	313.617
811.09	299.882
813.983	286.737
816.876	272.643
819.768	264.698
822.661	250.827
825.554	236.175
828.447	217.801
831.339	202.128
834.232	184.419
837.125	174.738
840.017	162.869
842.91	148.677
845.803	138.512
848.695	124.09
851.588	109.61
854.481	101.483
857.374	90.1599
860.266	75.7859
863.159	67.5444
866.052	57.378
868.944	45.8256
871.837	42.952
874.73	37.596
877.622	35.4224
880.515	28.8753
883.408	26.8849
886.301	23.7868
889.193	24.3797
892.086	21.0192
894.979	21.0558
897.871	17.4119
900.764	16.236
903.657	13.408
906.549	10.4026
909.442	7.23379
912.335	5.00064
915.227	0.569092
918.12	1.38855
921.013	3.74097
923.906	2.9024
926.798	6.10669
929.691	5.59274
932.584	7.15149
935.476	6.94275
938.369	5.68027
941.262	4.18521
944.154	2.43491
947.047	0.307892
949.94	2.46164
952.833	4.9407
955.725	8.69208
958.618	12.5399
961.511	18.1419
964.403	21.4723
967.296	26.2097
970.189	30.9719
973.082	35.5
975.974	40.0558
978.867	41.3661
981.76	42.9999
984.652	47.0434
987.545	49.1996
990.438	48.3413
993.33	48.5852
996.223	47.8464
999.116	45.8548
1002.01	44.7074
1004.9	42.7428
1007.79	42.0439
1010.69	38.7806
1013.58	36.3448
1016.47	35.7662
1019.37	33.737
1022.26	31.8775
1025.15	30.256
1028.04	29.7534
1030.94	29.2138
1033.83	26.4566
1036.72	25.231
1039.61	23.8318
1042.51	23.4399
1045.4	22.4537
1048.29	18.8833
1051.18	18.2649
1054.08	17.9061
1056.97	16.954
1059.86	15.651
1062.76	13.049
1065.65	12.1925
1068.54	11.7968
1071.43	9.83374
1074.33	10.0381
1077.22	10.2249
1080.11	8.68996
1083	8.58975
1085.9	7.76048
1088.79	6.99691
1091.68	5.31855
1094.58	4.1448
1097.47	4.90451
1100.36	3.58379
1103.25	4.02714
1106.15	2.74806
1109.04	1.68201
1111.93	2.03244
1114.82	1.63592
1117.72	0.632591
1120.61	1.19109
1123.5	1.01354
1126.39	0.199722
1129.29	0.442368
1132.18	0.708885
1135.07	0.901978
1137.96	0.04821
1140.86	0.137039
1143.75	0.87516
1146.64	1.24822
1149.54	0.270081
1152.43	0.284698
1155.32	0.114555
1158.21	0.024178
1161.11	0.56514
1164	0.213226
1166.89	0.479843
1169.79	0.75354
1172.68	1.57202
1175.57	0.006058
1178.46	1.45233
1181.36	0.50943
1184.25	0.034882
1187.14	0.112076
1190.03	0.82019
1192.93	0.117104
1195.82	0.051476
1198.71	2.39782
1201.61	1.5179
1204.5	2.19402
1207.39	1.29832
1210.28	0.625938
1213.18	2.2545
1216.07	1.88549
1218.96	1.87466
1221.85	2.17824
1224.75	3.02274
1227.64	3.15574
1230.53	2.40949
1233.42	2.60271
1236.32	3.09618
1239.21	0.914429
1242.1	2.77135
1244.99	2.67422
1247.89	2.51302
1250.78	1.02986
1253.67	1.52197
1256.57	0.132294
1259.46	1.42289
1262.35	1.60791
1265.24	1.66875
1268.14	0.692421
1271.03	1.36085
1273.92	0.497681
1276.82	0.059662
1279.71	0.288452
1282.6	0.859657
1285.49	1.39858
1288.39	0.755554
1291.28	0.272194
1294.17	0.753487
1297.06	2.26553
1299.96	0.218681
