Measurement: Raman, 532 nm, unoriented, Raman Data Processed
Mineral: Vigezzite
Rruff sample: R120132
Ideal chemistry: (Ca,Ce)(Nb,Ta,Ti)_2_O_6_
Locality: Jacupiranga mine, Cajati, SÃ£o Paulo, Southeast Region, Brazil
Source: Luiz Menezes
Description: Brown transparent crystals associated with black tochilinite, strontianite, and dolomite
Raman shift (cm-1)	intensity
181.446	0
184.339	173.699
187.231	590.758
190.124	1030.58
193.017	1400.97
195.909	1447.95
198.802	1242.63
201.695	959.708
204.588	707.428
207.48	527.593
210.373	395.255
213.266	263.118
216.158	172.474
219.051	62.3914
221.944	9.93433
224.836	18.719
227.729	12.6528
230.622	9.68579
233.514	15.3685
236.407	11.7853
239.3	7.72827
242.193	11.4752
245.085	24.7587
247.978	21.5681
250.871	0.250122
253.763	59.0153
256.656	145.174
259.549	258.171
262.442	398.349
265.334	584.934
268.227	796.073
271.12	1001.9
274.012	1211.69
276.905	1325.12
279.798	1318.77
282.69	1183.22
285.583	989.154
288.476	815.632
291.368	642.647
294.261	506.119
297.154	401.308
300.047	320.415
302.939	252.166
305.832	189.906
308.725	141.304
311.617	106.637
314.51	80.6501
317.403	62.4542
320.296	41.8406
323.188	27.4996
326.081	19.1643
328.974	20.9497
331.866	9.05749
334.759	13.5228
337.652	15.8923
340.544	5.0686
343.437	4.4696
346.33	3.98731
349.223	1.9375
352.115	3.80042
355.008	5.89392
357.901	4.1825
360.793	2.12817
363.686	6.08423
366.579	13.464
369.471	27.6857
372.364	42.9751
375.257	61.8276
378.149	82.958
381.042	105.174
383.935	119.285
386.828	130.85
389.72	136.363
392.613	136.147
395.506	124.219
398.398	117.853
401.291	95.3969
404.184	82.3376
407.077	75.3593
409.969	66.5458
412.862	68.1448
415.755	61.8472
418.647	64.9322
421.54	73.7997
424.433	92.3748
427.325	105.644
430.218	126.281
433.111	139.44
436.003	159.737
438.896	170.957
441.789	185.548
444.682	188.506
447.574	185.43
450.467	172.725
453.36	163.506
456.252	150.98
459.145	144.928
462.038	137.698
464.93	131.708
467.823	117.023
470.716	105.756
473.609	91.4335
476.501	76.0451
479.394	61.5981
482.287	42.0266
485.179	29.6927
488.072	19.0664
490.965	9.37231
493.858	3.3667
496.75	0.051941
499.643	0.7724
502.536	4.91107
505.428	5.68524
508.321	0.14386
511.214	9.86084
514.106	9.3703
516.999	12.9611
519.892	20.0715
522.784	18.8586
525.677	19.5666
528.57	19.3445
531.463	16.9002
534.355	20.5429
537.248	18.4216
540.141	20.9302
543.033	16.7223
545.926	13.0547
548.819	11.2859
551.712	10.5214
554.604	10.613
557.497	13.9667
560.39	2.4649
563.282	0.488708
566.175	4.20197
569.068	4.48907
571.96	4.60742
574.853	6.31043
577.746	3.60345
580.639	1.79309
583.531	2.44769
586.424	0.243225
589.317	4.46985
592.209	3.68237
595.102	11.2459
597.995	18.2088
600.888	29.8992
603.78	35.0857
606.673	46.9276
609.566	60.1116
612.458	67.6473
615.351	82.1847
618.244	102.651
621.136	112.41
624.029	123.609
626.922	133.241
629.814	150.103
632.707	163.754
635.6	181.443
638.493	208.58
641.385	229.04
644.278	266.265
647.171	315.641
650.063	368.758
652.956	430.981
655.849	504.72
658.741	579.492
661.634	661.447
664.527	743.109
667.42	817.017
670.312	886.556
673.205	939.769
676.098	967.899
678.99	966.429
681.883	930.893
684.776	869.572
687.668	785.28
690.561	696.528
693.454	590.272
696.347	490.731
699.239	403.902
702.132	316.185
705.025	247.969
707.917	189.93
710.81	138.275
713.703	95.5572
716.596	62.8748
719.488	35.698
722.381	15.6411
725.274	2.46411
728.166	9.62561
731.059	20.2065
733.952	16.2767
736.844	13.7833
739.737	4.06641
742.63	2.75757
745.523	20.9023
748.415	35.9017
751.308	50.4995
754.201	64.4276
757.093	80.8744
759.986	98.8214
762.879	117.169
765.771	130.763
768.664	140.594
771.557	149.387
774.449	154.967
777.342	156.464
780.235	150.223
783.128	148.944
786.02	139.003
788.913	124.984
791.806	112.621
794.698	102.863
797.591	87.3912
800.484	74.4574
803.376	64.251
806.269	56.0225
809.162	46.3105
812.055	40.5382
814.947	31.7572
817.84	26.7513
820.733	35.9077
823.625	35.6434
826.518	37.1245
829.411	45.6216
832.303	51.2372
835.196	64.7073
838.089	80.4377
840.982	101.071
843.874	124.002
846.767	148.336
849.66	178.703
852.552	212.324
855.445	245.328
858.338	279.043
861.231	318.377
864.123	348.839
867.016	380.416
869.909	409.987
872.801	426.12
875.694	431.929
878.587	426.718
881.479	408.264
884.372	380.793
887.265	346.656
890.158	312.929
893.05	255.523
895.943	212.956
898.836	166.35
901.728	148.428
904.621	88.9821
907.514	56.2301
910.406	34.2052
913.299	16.6911
916.192	5.01053
919.085	3.18353
921.977	8.59799
924.87	8.70303
927.763	8.50342
930.655	8.56149
933.548	2.71863
936.441	0.793365
939.333	3.53107
942.226	5.2276
945.119	13.3529
948.011	16.9827
950.904	22.7327
953.797	28.0401
956.69	30.5877
959.582	37.5426
962.475	41.3643
965.368	46.6951
968.26	52.7678
971.153	54.7322
974.046	60.5621
976.938	58.4995
979.831	60.7891
982.724	61.7074
985.617	59.3583
988.509	55.4583
991.402	47.7697
994.295	45.4429
997.187	45.1308
1000.08	42.6081
1002.97	37.8133
1005.87	35.0508
1008.76	33.4759
1011.65	35.15
1014.54	30.1032
1017.44	31.791
1020.33	29.5513
1023.22	24.5399
1026.11	21.9989
1029.01	23.4911
1031.9	22.5216
1034.79	17.7194
1037.68	19.701
1040.58	13.8279
1043.47	16.462
1046.36	11.5791
1049.26	10.3178
1052.15	10.2176
1055.04	10.4471
1057.93	9.78349
1060.83	9.5669
1063.72	9.34082
1066.61	7.43556
1069.51	7.26797
1072.4	7.57129
1075.29	6.57457
1078.18	4.28586
1081.08	4.79062
1083.97	4.54077
1086.86	3.42014
1089.75	1.97223
1092.65	3.88112
1095.54	1.31261
1098.43	1.4935
1101.33	2.26831
1104.22	1.56992
1107.11	1.6402
1110	0.097794
1112.89	2.59555
1115.79	0.163345
1118.68	0.506561
1121.57	0.765961
1124.47	0.571579
1127.36	0.36618
1130.25	2.90839
1133.14	0.771896
1136.04	0.914536
1138.93	0.699768
1141.82	0.249695
1144.71	2.25116
1147.61	4.46011
1150.5	1.05896
1153.39	2.42189
1156.29	2.05132
1159.18	0.421265
1162.07	1.11417
1164.96	0.904922
1167.86	1.67354
1170.75	1.26523
1173.64	1.58475
1176.54	3.14925
1179.43	2.41182
1182.32	3.92963
1185.21	2.12737
1188.11	0.957962
1191	8.64656
1193.89	2.29048
1196.78	2.02214
1199.68	3.26233
1202.57	2.96555
1205.46	0.605026
1208.35	2.25501
1211.25	2.37772
1214.14	1.75009
1217.03	2.94952
1219.92	1.98654
1222.82	2.73969
1225.71	1.25142
1228.6	2.25534
1231.5	0.128922
1234.39	11.8301
1237.28	2.42842
1240.17	1.56348
1243.07	1.17864
1245.96	2.73193
1248.85	0.70517
1251.74	0.943527
1254.64	1.5731
1257.53	3.58255
1260.42	4.36476
1263.32	4.0536
1266.21	3.31015
1269.1	3.19801
1271.99	3.12477
1274.89	4.84703
1277.78	4.39975
1280.67	2.97833
1283.57	0.650864
1286.46	1.98875
1289.35	2.68967
1292.24	3.36539
1295.13	2.98515
1298.03	0.644241
1300.92	0.97493
