Measurement: Raman, 780 nm, unoriented, Raman Data Processed
Mineral: Vigezzite
Rruff sample: R120132
Ideal chemistry: (Ca,Ce)(Nb,Ta,Ti)_2_O_6_
Locality: Jacupiranga mine, Cajati, SÃ£o Paulo, Southeast Region, Brazil
Source: Luiz Menezes
Description: Brown transparent crystals associated with black tochilinite, strontianite, and dolomite
Raman shift (cm-1)	intensity
160.624	0
163.517	5.06543
166.41	176.107
169.302	458.722
172.195	864.043
175.088	1332.65
177.981	1869.88
180.873	2470.29
183.766	3133.56
186.659	3772.54
189.551	4283.6
192.444	4644.89
195.337	4703.66
198.229	4457.92
201.122	3885.65
204.015	3177.92
206.907	2517.07
209.8	1901.98
212.693	1360.66
215.586	906.808
218.478	530.339
221.371	268.787
224.264	79.312
227.156	10.6528
230.049	33.4253
232.942	44.8169
235.834	2.04688
238.727	10.9541
241.62	26.4673
244.513	61.166
247.405	162.42
250.298	285.846
253.191	480.221
256.083	768.454
258.976	1130.55
261.869	1495.02
264.762	1883.01
267.654	2333.04
270.547	2853.26
273.44	3363.35
276.332	3767.8
279.225	3863.07
282.118	3570.94
285.01	2986.22
287.903	2331.01
290.796	1762.67
293.688	1268.52
296.581	892.848
299.474	605.59
302.366	360.437
305.259	180.226
308.152	40.6963
311.045	45.939
313.937	97.9648
316.83	97.2085
319.723	18.3398
322.615	147.742
325.508	332.622
328.401	647.634
331.293	1014.64
334.186	1452.02
337.079	1923.98
339.972	2396.08
342.864	2853.37
345.757	3248.45
348.65	3568.43
351.542	3730.76
354.435	3771.75
357.328	3716.6
360.221	3520.02
363.113	3224.2
366.006	2859.69
368.899	2394.44
371.791	1922.14
374.684	1415.61
377.577	1006.01
380.469	713.463
383.362	460.462
386.255	270.29
389.147	82.4219
392.04	2.49951
394.933	61.2231
397.826	32.7554
400.718	81.022
403.611	260.722
406.504	516.557
409.396	890.833
412.289	1351.67
415.182	1871.19
418.075	2400.71
420.967	3023.09
423.86	3557.97
426.753	4121.47
429.645	4661.08
432.538	5225.93
435.431	5693.18
438.323	6170.71
441.216	6677.05
444.109	7165.06
447.001	7575.76
449.894	7901.11
452.787	8054.35
455.68	8009.31
458.572	7773.47
461.465	7265.96
464.358	6610.37
467.25	5852.23
470.143	4998.8
473.036	4169.61
475.928	3359.32
478.821	2642.98
481.714	2038.76
484.606	1500.6
487.499	1066.57
490.392	692.111
493.285	411.14
496.177	207.621
499.07	46.6084
501.963	58.043
504.855	81.0107
507.748	55.2227
510.641	71.5283
513.534	260.282
516.426	499.755
519.319	733.673
522.212	971.011
525.104	1162.82
527.997	1331.29
530.89	1388.27
533.782	1419.91
536.675	1370.15
539.568	1308.68
542.46	1190.18
545.353	1050.78
548.246	897.097
551.139	784.143
554.031	633.779
556.924	483.488
559.817	300.646
562.709	129.724
565.602	18.8252
568.495	149.949
571.388	236.087
574.28	237.709
577.173	238.623
580.066	158.488
582.958	62.5498
585.851	117.853
588.744	323.736
591.636	580.191
594.529	867.458
597.422	1228.81
600.314	1686.16
603.207	2244.74
606.1	2844
608.993	3533.8
611.885	4306.98
614.778	5187.32
617.671	6158.73
620.563	7235.16
623.456	8389.39
626.349	9525.55
629.241	10615.6
632.134	11739
635.027	12815.8
637.919	13829.8
640.812	14798.4
643.705	15662.9
646.598	16476.2
649.49	17138.1
652.383	17540.9
655.276	17817.5
658.168	17973.5
661.061	17912.7
663.954	17680.3
666.846	17360.9
669.739	16820.5
672.632	16120.6
675.525	15287.2
678.417	14331.5
681.31	13163
684.203	12055
687.095	10899.1
689.988	9666.6
692.881	8483.72
695.774	7307.34
698.666	6207.52
701.559	5151.98
704.452	4283.55
707.344	3542
710.237	2837.69
713.13	2204.34
716.022	1676.82
718.915	1277.8
721.808	865.574
724.7	542.791
727.593	265.155
730.486	86.1807
733.379	60.8467
736.271	166.086
739.164	233.678
742.057	238.835
744.949	213.727
747.842	139.981
750.735	83.2402
753.627	25.542
756.52	166.541
759.413	317.257
762.306	519.378
765.198	688.975
768.091	878.448
770.984	1043.5
773.876	1216.1
776.769	1439.19
779.662	1588.73
782.554	1723.68
785.447	1814
788.34	1861.61
791.232	1904.47
794.125	1794.58
797.018	1637.19
799.911	1466.13
802.803	1252.09
805.696	1053.7
808.589	857.727
811.481	659.255
814.374	505.614
817.267	398.062
820.159	287.914
823.052	172.058
825.945	67.5478
828.838	38.9722
831.73	8.26709
834.623	18.4727
837.516	19.6875
840.408	27.2666
843.301	74.7095
846.194	143.827
849.087	248.661
851.979	375.361
854.872	485.584
857.765	687.55
860.657	837.689
863.55	1034.87
866.443	1212.47
869.335	1365.81
872.228	1505.76
875.121	1652.86
878.013	1745.7
880.906	1818.8
883.799	1851.42
886.692	1865.58
889.584	1791.93
892.477	1691.24
895.37	1579.14
898.262	1469.94
901.155	1330.51
904.048	1223.55
906.94	1109.85
909.833	966.52
912.726	910.798
915.619	805.722
918.511	731.603
921.404	603.625
924.297	515.363
927.189	455.133
930.082	382.242
932.975	313.621
935.867	254.499
938.76	196.796
941.653	144.071
944.545	103.569
947.438	73.3428
950.331	39.2371
953.224	24.771
956.116	15.1291
959.009	0.231445
961.902	7.42651
964.794	19.7371
967.687	10.8027
970.58	0.07959
973.472	18.1184
976.365	16.2385
979.258	2.62085
982.151	23.2173
985.043	14.5703
987.936	11.0793
990.829	18.3059
993.721	29.5373
996.614	30.1489
999.507	49.3047
1002.4	38.4985
1005.29	54.054
1008.18	41.688
1011.08	36.7605
1013.97	27.0571
1016.86	51.6851
1019.76	37.741
1022.65	18.3621
1025.54	29.0898
1028.43	30.5371
1031.33	17.4544
1034.22	5.63843
1037.11	5.47632
1040.01	8.90137
1042.9	9.35669
1045.79	1.271
1048.68	7.92773
1051.58	1.32935
1054.47	6.21851
1057.36	7.75561
1060.25	15.1702
1063.15	2.18237
1066.04	5.56885
1068.93	9.8894
1071.82	5.77612
1074.72	14.887
1077.61	15.2017
1080.5	20.2895
1083.39	17.676
1086.29	24.6916
1089.18	38.073
1092.07	43.3848
1094.97	39.7561
1097.86	33.217
1100.75	62.1614
1103.64	44.0942
1106.54	54.1292
1109.43	64.3892
1112.32	62.4138
1115.21	83.1384
1118.11	75.7922
1121	104.704
1123.89	105.897
1126.79	129.095
1129.68	121.451
1132.57	144.191
1135.46	151.283
1138.36	172.448
1141.25	171.988
1144.14	193.673
1147.03	173.959
1149.93	189.258
1152.82	192.001
1155.71	179.637
1158.61	183.395
1161.5	196.811
1164.39	197.022
1167.28	225.148
1170.18	211.693
1173.07	307.632
1175.96	294.725
1178.85	321.912
1181.75	301.997
1184.64	325.735
1187.53	362.267
1190.42	372.073
1193.32	407.101
1196.21	445.84
1199.1	435.995
1202	447.774
1204.89	458.945
1207.78	378.478
1210.67	375.877
1213.57	367.482
1216.46	280.332
1219.35	192.427
1222.24	115.01
1225.14	91.0752
1228.03	76.5312
1230.92	27.0205
1233.82	14.8525
1236.71	58.3164
1239.6	31.2363
1242.49	59.2373
1245.39	104.04
1248.28	116.201
1251.17	172.658
1254.06	217.25
1256.96	185.142
1259.85	167.362
1262.74	221.539
1265.63	210.123
1268.53	209.502
1271.42	179.144
1274.31	131.051
1277.21	142.43
1280.1	39.918
1282.99	8.00391
