Measurement: Raman, 780 nm, unoriented, Raman Data Processed
Mineral: Vigezzite
Rruff sample: R060584
Ideal chemistry: (Ca,Ce)(Nb,Ta,Ti)_2_O_6_
Locality: Jacupiranga mine, Cajati, SÃ£o Paulo, Southeast Region, Brazil
Source: Luiz Menezes and Michael Scott
Description: Brown flattened plates on white calcite
Raman shift (cm-1)	intensity
102.692	0
106.067	168.089
109.442	271.742
112.817	242.92
116.192	173.199
119.566	60.0571
122.941	40.5635
126.316	49.5205
129.691	98.1426
133.066	54.71
136.44	56.1714
139.815	15.1899
143.19	0.889648
146.565	12.3018
149.94	10.3394
153.315	18.353
156.689	15.6904
160.064	46.4922
163.439	214.277
166.814	395.654
170.189	573.334
173.563	785.759
176.938	998.388
180.313	1202.37
183.688	1415.39
187.063	1558.43
190.437	1660.71
193.812	1691.5
197.187	1575.47
200.562	1308.48
203.937	1024.53
207.311	747.678
210.686	445.8
214.061	214.632
217.436	54.9492
220.811	18.2505
224.186	37.1304
227.56	13.6782
230.935	79.4814
234.31	127.578
237.685	227.639
241.06	193.871
244.435	277.484
247.809	446.707
251.184	628.593
254.559	871.043
257.934	1190.25
261.309	1557.27
264.683	1895.57
268.058	2255.99
271.433	2559.42
274.808	2727.81
278.183	2692.31
281.558	2373.01
284.932	1915.22
288.307	1463.41
291.682	1040.35
295.057	633.588
298.432	351.584
301.806	90.126
305.181	48.7022
308.556	69.2061
311.931	62.3418
315.306	95.8047
318.68	300.659
322.055	647.099
325.43	1051.93
328.805	1544.66
332.18	2174.23
335.555	2849.04
338.929	3599.63
342.304	4232.45
345.679	4790.14
349.054	5250.69
352.429	5447.92
355.803	5489.1
359.178	5359.61
362.553	4987.43
365.928	4425.24
369.303	3884.98
372.678	3155.36
376.052	2436.12
379.427	1769.65
382.802	1211.78
386.177	770.601
389.552	405.972
392.926	116.207
396.301	36.5488
399.676	110.492
403.051	41.8389
406.426	141.951
409.8	344.372
413.175	603.704
416.55	1007.16
419.925	1399.25
423.3	1816.23
426.675	2272.19
430.049	2739.05
433.424	3313.38
436.799	3802.21
440.174	4283.29
443.549	4855.11
446.923	5370.47
450.298	5735.58
453.673	5968.56
457.048	5982.31
460.423	5893.41
463.798	5548.8
467.172	5047.03
470.547	4433.12
473.922	3826.33
477.297	3017.26
480.672	2377.11
484.046	1722.94
487.421	1116.92
490.796	674.021
494.171	348.085
497.546	124.807
500.921	63.9131
504.295	29.0879
507.67	32.4609
511.045	88.5869
514.42	280.131
517.795	518.441
521.169	762.184
524.544	974.871
527.919	1220.75
531.294	1319.31
534.669	1412.78
538.044	1410.59
541.418	1347.11
544.793	1184.98
548.168	1088.58
551.543	908.891
554.918	787.178
558.293	589.773
561.667	407.925
565.042	158.15
568.417	38.9336
571.792	69.5352
575.167	133.426
578.541	166.054
581.916	84.3691
585.291	70.124
588.666	35.1953
592.041	191.416
595.415	431.235
598.79	717.021
602.165	1123.34
605.54	1527.06
608.915	1960.03
612.29	2542.96
615.664	3106.31
619.039	3749.33
622.414	4437.55
625.789	5149.8
629.164	5866.69
632.538	6425.85
635.913	7004.56
639.288	7505.78
642.663	7910.59
646.038	8300.09
649.413	8636.05
652.787	8818.64
656.162	8910.12
659.537	8967.54
662.912	8850.27
666.287	8627.53
669.661	8393.91
673.036	7953.82
676.411	7482.74
679.786	6962.67
683.161	6379.67
686.535	5761.76
689.91	5158.3
693.285	4534.03
696.66	3915.93
700.035	3386.41
703.41	2816.06
706.784	2382.77
710.159	1902.44
713.534	1453.51
716.909	1087.02
720.284	811.28
723.659	548.079
727.033	304.613
730.408	181.711
733.783	33.54
737.158	67.5283
740.533	123.333
743.907	147.287
747.282	102.385
750.657	37.874
754.032	28.8955
757.407	42.0586
760.782	149.606
764.156	284.902
767.531	464.746
770.906	556.339
774.281	648.469
777.656	799.822
781.03	946.442
784.405	1000.06
787.78	1047.24
791.155	1137.61
794.53	1161.92
797.904	974.473
801.279	858.346
804.654	730.248
808.029	626.855
811.404	501.015
814.779	359.88
818.153	317.384
821.528	237.921
824.903	122.543
828.278	56.9761
831.653	3.31201
835.028	10.4946
838.402	6.46924
841.777	1.12451
845.152	36.897
848.527	102.71
851.902	230.271
855.276	253.144
858.651	365.06
862.026	447.511
865.401	545.327
868.776	663.237
872.15	755.431
875.525	845.824
878.9	876.133
882.275	938.645
885.65	997.984
889.024	945.527
892.399	904.03
895.774	832.482
899.149	782.427
902.524	710.171
905.899	668.636
909.273	595.866
912.648	527.608
916.023	474.371
919.398	442.309
922.773	371.362
926.148	360.243
929.522	302.783
932.897	296.111
936.272	228.731
939.647	190.527
943.022	136.913
946.396	110.374
949.771	79.3987
953.146	54.3818
956.521	45.8816
959.896	34.7654
963.27	10.9336
966.645	4.37427
970.02	7.67603
973.395	2.2605
976.77	17.1748
980.145	8.69971
983.519	11.9341
986.894	4.05737
990.269	13.3101
993.644	15.844
997.019	9.2627
1000.39	19.9944
1003.77	10.1804
1007.14	20.7319
1010.52	19.2197
1013.89	24.55
1017.27	45.7942
1020.64	29.6545
1024.02	13.658
1027.39	14.6956
1030.77	9.18896
1034.14	2.72315
1037.52	21.5872
1040.89	6.25415
1044.27	2.17481
1047.64	18.8442
1051.02	20.2546
1054.39	5.22046
1057.77	1.32568
1061.14	8.7544
1064.52	11.8201
1067.89	15.5745
1071.27	14.2966
1074.64	14.2932
1078.01	6.71509
1081.39	32.0793
1084.76	36.1968
1088.14	61.3716
1091.51	60.655
1094.89	69.9143
1098.26	64.5339
1101.64	71.8508
1105.01	90.8144
1108.39	144.238
1111.76	123.856
1115.14	111.335
1118.51	153.036
1121.89	190.121
1125.26	191.566
1128.64	222.954
1132.01	246.646
1135.39	264.488
1138.76	293.352
1142.14	325.784
1145.51	346.83
1148.88	367.684
1152.26	376.263
1155.63	411.441
1159.01	394.842
1162.38	411.649
1165.76	434.492
1169.13	484.536
1172.51	545.219
1175.88	629.851
1179.26	656.215
1182.63	661.789
1186.01	665.733
1189.38	681.381
1192.76	694.743
1196.13	679.366
1199.51	671.037
1202.88	602
1206.26	561.499
1209.63	498.594
1213.01	420.238
1216.38	341.986
1219.76	260.481
1223.13	134.639
1226.51	13.2881
1229.88	100.538
1233.26	6.38574
1236.63	81.4009
1240.01	80.9541
1243.38	184.093
1246.76	260.248
1250.13	325.576
1253.51	404.275
1256.88	445.685
1260.25	382.758
1263.63	352.581
1267	264.524
1270.38	175.038
1273.75	159.622
1277.13	96.3457
1280.5	36.4766
1283.88	3.80859
