Measurement: Raman, 532 nm, unoriented, Raman Data Processed
Mineral: Viitaniemiite
Rruff sample: R060052
Ideal chemistry: NaCaAlPO_4_F_3_
Locality: Paprook, Afghanistan
Source: Marcus Origlieri
Description: Clear, colorless fragment
Measured chemistry: Na_1.00_(Ca_0.97_Mn^2+^_0.03_)_Σ=1_Al_1.00_P_1.00_O_4_(F_1.60_(OH)_1.40_)_Σ=3_
Raman shift (cm-1)	intensity
134.324	0
137.699	2394
141.074	1382.7
144.449	206.156
147.823	1215.88
151.198	2719.33
154.573	3120.14
157.948	2649.62
161.323	1392.59
164.698	602.922
168.072	943.609
171.447	1593.94
174.822	1380.09
178.197	1549.23
181.572	2270.45
184.946	1111.95
188.321	1023.5
191.696	663.422
195.071	1045.59
198.446	1609.09
201.821	1692.25
205.195	1403.27
208.57	319.469
211.945	243.094
215.32	132.141
218.695	10.5625
222.07	85.7656
225.444	312.328
228.819	706.906
232.194	1221.06
235.569	2066.34
238.944	3096.34
242.318	5086.92
245.693	8391.08
249.068	5694
252.443	2778.17
255.818	2017.7
259.192	1381.94
262.567	1101.55
265.942	578.438
269.317	893.391
272.692	1818.94
276.067	905.109
279.441	550.578
282.816	267.594
286.191	560.891
289.566	658.812
292.941	671.516
296.315	871.219
299.69	535.672
303.065	36.1406
306.44	789.531
309.815	1439.42
313.19	1462.52
316.564	1788.67
319.939	2482.69
323.314	2704.56
326.689	2442.34
330.063	2338.41
333.438	2302.81
336.813	1684.66
340.188	2186.56
343.563	1979.47
346.938	1573.38
350.312	1579.09
353.687	1850.88
357.062	941.125
360.437	95.2188
363.812	25.875
367.187	43.375
370.561	418.594
373.936	355.156
377.311	400.125
380.686	1829.53
384.061	1554.78
387.435	1159.56
390.81	781.969
394.185	1971.19
397.56	2164.72
400.935	4171.97
404.31	5520.62
407.684	5115.22
411.059	4096.84
414.434	2750.19
417.809	3550.31
421.184	2205.66
424.558	1095.06
427.933	932.969
431.308	629.031
434.683	208.562
438.058	279.906
441.432	487.469
444.807	971.906
448.182	1370.41
451.557	2197.88
454.932	2957.38
458.307	3597.75
461.681	6214.84
465.056	6280.09
468.431	4549.16
471.806	2847.66
475.181	2657.84
478.555	2886.06
481.93	5387.5
485.305	5329.78
488.68	3311.06
492.055	1414.81
495.43	624.094
498.804	640.75
502.179	849.969
505.554	45.375
508.929	370.594
512.304	465.844
515.678	1605.84
519.053	802.406
522.428	128.094
525.803	553.406
529.178	1451.44
532.552	1525.97
535.927	1167.53
539.302	664.781
542.677	539.812
546.052	153.625
549.427	276.656
552.801	3044.88
556.176	3041.41
559.551	2469.88
562.926	1750.5
566.301	1157.56
569.675	2068.38
573.05	4006.25
576.425	5705.69
579.8	7755.94
583.175	11675.9
586.549	11650.2
589.924	3454.12
593.299	1035.06
596.674	479.625
600.049	951.688
603.424	1147.94
606.798	22.75
610.173	235.875
613.548	3250.62
616.923	2966.5
620.298	2046.62
623.673	1478.88
627.047	318.062
630.422	1202.88
633.797	1192.06
637.172	1213.88
640.547	366.25
643.921	605.688
647.296	1753.31
650.671	2380.25
654.046	480.875
657.421	3261.31
660.795	3001.12
664.17	2436.25
667.545	1572.06
670.92	988.438
674.295	4468.25
677.669	4747.31
681.044	3524.88
684.419	1910.56
687.794	475.188
691.169	6.1875
694.544	1943.62
697.918	871.625
701.293	3525.88
704.668	4808
708.043	3314.5
711.418	3417
714.793	4811.38
718.167	4355.25
721.542	4621.69
724.917	3465.12
728.292	1607.88
731.667	2224.12
735.041	2406
738.416	3552.31
741.791	2605.44
745.166	333.125
748.541	360.812
751.915	930.062
755.29	1269
758.665	398.188
762.04	292.188
765.415	264.375
768.79	1314.75
772.164	2596.44
775.539	4267.69
778.914	2429.69
782.289	2502.44
785.664	2177.19
789.038	2494.12
792.413	1842.12
795.788	4141.94
799.163	3619.81
802.538	1483.25
805.913	2807
809.287	3995.5
812.662	5448.75
816.037	1994.06
819.412	704.625
822.787	408.062
826.161	3111.75
829.536	2813.25
832.911	3537.62
836.286	2064.94
839.661	1620.5
843.035	3070.62
846.41	3362
849.785	1108.5
853.16	547.875
856.535	780.125
859.909	1175.12
863.284	1446.25
866.659	3791.88
870.034	2868.88
873.409	3621.75
876.784	1754.25
880.158	869
883.533	1711.12
886.908	1901.88
890.283	1273.12
893.658	2884.5
897.033	1781.88
900.407	3633.75
903.782	6442.38
907.157	5238.62
910.532	4521.38
913.907	6561.38
917.281	6385
920.656	6807.88
924.031	4856.88
927.406	3178.88
930.781	3199.88
934.155	4228.12
937.53	4321.38
940.905	1722
944.28	530.125
947.655	757
951.029	38.75
954.404	983.125
957.779	2455.75
961.154	3106.75
964.529	4527.38
967.904	3176.88
971.278	4795.5
974.653	7193.38
978.028	10060.1
981.403	16449.4
984.778	19577
988.153	26027.5
991.527	31372.1
994.902	18234.9
998.277	10805.4
1001.65	6458.12
1005.03	7020.5
1008.4	2123.12
1011.78	1954.88
1015.15	1158.38
1018.53	3459
1021.9	4348.5
1025.28	4003.38
1028.65	2204.88
1032.03	11154.5
1035.4	5841.62
1038.78	5791.5
1042.15	1.125
1045.52	1405.5
1048.9	3444.88
1052.27	4327
1055.65	4027.12
1059.02	5853.38
1062.4	2785.12
1065.77	6631.25
1069.15	3179
1072.52	4255.12
1075.9	710.875
1079.27	3061.38
1082.65	2587.88
1086.02	4435
1089.4	3094.62
1092.77	917.125
1096.15	1462.88
1099.52	4530.88
1102.9	8461.38
1106.27	5482.12
1109.65	5241.88
1113.02	1432.88
1116.4	1318.12
1119.77	448.375
1123.14	3840.12
1126.52	3380.12
1129.89	3466.75
1133.27	4431.62
1136.64	5393.5
1140.02	4954.62
1143.39	4596.12
1146.77	3770.88
1150.14	5881.38
1153.52	3292
1156.89	8337.62
1160.27	7633.38
1163.64	5265.25
1167.02	8146.12
1170.39	4347.88
1173.77	4812.12
1177.14	4530.88
1180.52	3315.25
1183.89	8022.25
1187.27	5096.5
1190.64	8868.88
1194.02	3341.38
1197.39	1824.25
1200.77	2632.12
1204.14	7883.88
1207.52	7165.88
1210.89	7600.38
1214.27	2353.75
1217.64	314.375
1221.02	1880.38
1224.39	9122.12
1227.76	9926.12
1231.14	3596
1234.51	4011.12
1237.89	1511.12
1241.26	2544.25
1244.64	364.75
1248.01	2426
1251.39	3790.75
1254.76	9073.5
1258.14	4410
1261.51	3408.75
1264.89	3902.5
1268.26	26
1271.64	3113.5
1275.01	67.75
1278.39	4978.5
1281.76	9249
1285.14	8280.75
1288.51	5168
1291.89	6913
1295.26	6289.5
1298.63	3433.5
1302.01	6023.75
1305.38	0
