Measurement: Raman, 780 nm, unoriented, Raman Data Processed
Mineral: Viitaniemiite
Rruff sample: R060052
Ideal chemistry: NaCaAlPO_4_F_3_
Locality: Paprook, Afghanistan
Source: Marcus Origlieri
Description: Clear, colorless fragment
Measured chemistry: Na_1.00_(Ca_0.97_Mn^2+^_0.03_)_Σ=1_Al_1.00_P_1.00_O_4_(F_1.60_(OH)_1.40_)_Σ=3_
Raman shift (cm-1)	intensity
117.724	0
121.098	0.914993
124.473	0.423752
127.848	6.84651
131.223	20.4637
134.598	38.2335
137.972	64.0785
141.347	92.5798
144.722	151.854
148.097	195.603
151.472	192.545
154.847	116.887
158.221	52.8575
161.596	16.8221
164.971	0.962135
168.346	3.64265
171.721	1.56235
175.095	4.75346
178.47	20.7708
181.845	44.8025
185.22	65.3527
188.595	101.326
191.97	154.697
195.344	235.728
198.719	305.869
202.094	313.752
205.469	216.994
208.844	123.175
212.218	81.899
215.593	70.5264
218.968	89.4493
222.343	153.827
225.718	259.616
229.093	337.092
232.467	449.54
235.842	651.721
239.217	1026.31
242.592	1844.17
245.967	2343.53
249.341	1072.13
252.716	416.515
256.091	198.255
259.466	111.573
262.841	65.3005
266.216	39.4786
269.59	19.1389
272.965	10.312
276.34	3.15659
279.715	0.841064
283.089	3.90974
286.464	2.51727
289.839	1.24582
293.214	3.44607
296.589	11.288
299.964	20.935
303.338	22.0322
306.713	24.4254
310.088	33.3502
313.463	46.8675
316.838	70.943
320.212	105.409
323.587	144.27
326.962	160.801
330.337	138.988
333.712	108.308
337.087	88.0838
340.461	76.6553
343.836	64.0693
347.211	40.4461
350.586	18.1752
353.961	4.13334
357.335	1.36617
360.71	2.21854
364.085	2.60438
367.46	6.03252
370.835	10.1624
374.209	12.9442
377.584	24.7441
380.959	46.7187
384.334	91.9087
387.709	148.293
391.084	202.453
394.458	275.215
397.833	403.458
401.208	622.197
404.583	851.863
407.958	738.165
411.332	463.152
414.707	313.183
418.082	191.75
421.457	96.4216
424.832	43.5342
428.207	15.0558
431.581	0.538681
434.956	4.40224
438.331	0.983627
441.706	12.2992
445.081	31.459
448.455	56.2147
451.83	97.3023
455.205	168.157
458.58	273.89
461.955	338.96
465.329	279.241
468.704	233.552
472.079	260.875
475.454	358.471
478.829	550.534
482.204	729.238
485.578	533.871
488.953	249.022
492.328	117.641
495.703	59.2253
499.078	33.9534
502.452	16.6681
505.827	8.50851
509.202	3.52776
512.577	1.14761
515.952	0.740608
519.327	1.60703
522.701	2.01268
526.076	0.513245
529.451	4.02239
532.826	3.20017
536.201	3.61439
539.575	10.1757
542.95	15.1435
546.325	27.1104
549.7	41.8665
553.075	59.1531
556.449	72.6949
559.824	91.7862
563.199	144.56
566.574	295.393
569.949	462.489
573.324	536.962
576.698	639.624
580.073	1079.68
583.448	2296.16
586.823	1535.5
590.198	415.215
593.572	167.579
596.947	90.4904
600.322	55.0337
603.697	34.0879
607.072	21.2704
610.447	11.9983
613.821	7.27169
617.196	3.47641
620.571	0.561138
623.946	1.08032
627.321	0.638878
630.695	0.746983
634.07	2.94981
637.445	8.86908
640.82	18.1732
644.195	33.5548
647.569	51.8898
650.944	74.6036
654.319	120.588
657.694	195.026
661.069	251.206
664.444	163.749
667.818	74.5182
671.193	36.2269
674.568	18.8775
677.943	10.8016
681.318	7.19253
684.692	3.76067
688.067	1.23533
691.442	0.930447
694.817	1.69935
698.192	0.941711
701.567	0.090618
704.941	0.577885
708.316	0.784691
711.691	4.18743
715.066	7.60846
718.441	14.9309
721.815	18.8919
725.19	31.2048
728.565	40.4372
731.94	52.5502
735.315	65.9261
738.689	76.256
742.064	80.7937
745.439	72.6201
748.814	57.1581
752.189	40.8282
755.564	23.7129
758.938	15.6569
762.313	11.037
765.688	5.93199
769.063	5.48149
772.438	3.46758
775.812	4.27159
779.187	3.30272
782.562	1.79058
785.937	0.360371
789.312	0.745586
792.687	0.904503
796.061	0.169266
799.436	3.40888
802.811	4.10153
806.186	7.79992
809.561	13.5373
812.935	12.0362
816.31	6.62063
819.685	3.2599
823.06	4.95892
826.435	4.9197
829.809	5.7055
833.184	6.7111
836.559	6.83271
839.934	7.81127
843.309	6.72216
846.684	6.40035
850.058	7.6096
853.433	6.95195
856.808	6.9851
860.183	8.39205
863.558	7.90311
866.932	6.44779
870.307	6.02325
873.682	5.78048
877.057	6.16619
880.432	1.72868
883.807	3.95734
887.181	4.83734
890.556	3.33237
893.931	1.21786
897.306	2.7507
900.681	1.34815
904.055	0.362106
907.43	0.115063
910.805	1.31276
914.18	0.691803
917.555	1.31464
920.929	1.47513
924.304	0.68845
927.679	1.0857
931.054	0.627987
934.429	1.63508
937.804	3.29361
941.178	5.25326
944.553	12.7157
947.928	17.9853
951.303	26.7401
954.678	39.263
958.052	58.3614
961.427	83.2918
964.802	134.864
968.177	231.34
971.552	381.562
974.927	667.035
978.301	1124.71
981.676	1817.39
985.051	2586.11
988.426	3571.57
991.801	3458.94
995.175	1458.94
998.55	590.377
1001.92	259.768
1005.3	123.183
1008.67	60.9542
1012.05	27.7643
1015.42	10.985
1018.8	3.02052
1022.17	0.066872
1025.55	4.27663
1028.92	14.921
1032.3	24.0798
1035.67	37.5761
1039.05	75.665
1042.42	146.42
1045.8	197.945
1049.17	231.213
1052.55	313.312
1055.92	395.942
1059.3	342.844
1062.67	238.851
1066.05	183.459
1069.42	165.857
1072.8	181.074
1076.17	194.383
1079.55	133.728
1082.92	68.8644
1086.3	37.7074
1089.67	17.0935
1093.05	8.95036
1096.42	3.66111
1099.8	0.227219
1103.17	0.775826
1106.54	1.41503
1109.92	3.39108
1113.29	2.23847
1116.67	0.254868
1120.04	0.242901
1123.42	0.95015
1126.79	1.85302
1130.17	2.53059
1133.54	6.14075
1136.92	7.49762
1140.29	9.47412
1143.67	13.4293
1147.04	18.6137
1150.42	24.548
1153.79	31.8996
1157.17	37.5189
1160.54	40.0883
1163.92	33.7704
1167.29	25.9858
1170.67	21.9249
1174.04	19.0974
1177.41	17.2165
1180.79	14.3353
1184.16	12.6591
1187.54	9.40656
1190.91	8.0422
1194.29	8.70023
1197.66	7.66193
1201.04	4.72852
1204.41	4.64666
1207.79	3.80687
1211.16	3.20534
1214.54	2.23821
1217.91	3.08443
1221.29	1.52902
1224.66	0.649403
1228.04	1.71881
1231.41	1.72665
1234.79	3.23017
1238.16	2.76178
1241.54	1.33793
1244.91	2.9772
1248.29	3.19708
1251.66	1.50645
1255.04	1.57965
1258.41	0.536732
1261.79	0.676636
1265.16	1.04217
1268.54	2.087
1271.91	2.52197
1275.29	0.742508
1278.66	0.109493
1282.04	1.36055
1285.41	0.61367
