Measurement: Raman, 785 nm, unoriented, Raman Data Processed
Mineral: Violarite
Rruff sample: R060846
Ideal chemistry: Fe^2+^Ni^3+^_2_S_4_
Locality: Perseverance mine, Agnew, Western Australia
Source: Michael Scott
Description: Violet metallic massive
Measured chemistry: lighter phase: (Fe^2+^_0.99_Co_0.01_)_Σ=1_Ni^3+^_2.00_S_4.00_   ; trace amounts of Cu ; darker phase: (Fe_0.98_Co_0.01_Ni_0.01_)_Σ=1_S_2.00_
Raman shift (cm-1)	intensity
175.042	0
177.935	13.2989
180.828	45.5109
183.72	10.1209
186.613	34.2961
189.506	28.223
192.399	2.16156
195.291	51.3157
198.184	36.4175
201.077	24.0257
203.969	70.7602
206.862	62.3676
209.755	57.6721
212.648	23.353
215.54	27.4862
218.433	44.9138
221.326	50.5145
224.218	40.1125
227.111	55.4518
230.004	43.8441
232.896	1.78772
235.789	58.5743
238.682	39.2775
241.575	41.6433
244.467	36.5513
247.36	35.4553
250.253	35.4634
253.145	3.24347
256.038	4.58173
258.931	1.82025
261.823	5.45178
264.716	1.46307
267.609	2.79077
270.502	11.9668
273.394	6.99341
276.287	2.35986
279.18	28.3339
282.072	16.0225
284.965	30.774
287.858	12.2906
290.75	2.68726
293.643	57.4293
296.536	38.4177
299.428	139.627
302.321	233.302
305.214	355.569
308.107	643.93
310.999	1205.49
313.892	2487.02
316.785	4344.37
319.677	6198.25
322.57	6166.95
325.463	3544
328.356	1935.88
331.248	1359.89
334.141	1245.76
337.034	1284.49
339.926	1206.09
342.819	887.108
345.712	570.564
348.604	362.179
351.497	272.498
354.39	254.057
357.283	229.601
360.175	189.351
363.068	258.733
365.961	317.635
368.853	485.906
371.746	707.049
374.639	1101.45
377.531	1993.04
380.424	3103.03
383.317	4215.16
386.209	3654.59
389.102	1596.33
391.995	807.8
394.888	466.111
397.78	316.859
400.673	182.534
403.566	120.41
406.458	90.484
409.351	132.925
412.244	87.4744
415.137	123.146
418.029	123.392
420.922	138.57
423.815	125.792
426.707	89.2976
429.6	101.777
432.493	54.4113
435.385	58.3717
438.278	35.7844
441.171	1.0069
444.063	31.1612
446.956	9.37347
449.849	7.159
452.742	16.4798
455.634	13.9315
458.527	11.0079
461.42	16.1919
464.312	12.2508
467.205	10.561
470.098	19.0263
472.99	2.00354
475.883	15.0892
478.776	29.9501
481.669	15.4507
484.561	41.5331
487.454	21.3476
490.347	34.9212
493.239	57.22
496.132	43.068
499.025	65.2705
501.918	54.1378
504.81	76.2948
507.703	29.3474
510.596	70.7831
513.488	27.5273
516.381	38.4316
519.274	30.6236
522.166	48.1143
525.059	15.1659
527.952	24.0203
530.845	35.5969
533.737	29.2485
536.63	14.1594
539.523	37.6373
542.415	51.7554
545.308	22.6807
548.201	52.0184
551.093	27.3499
553.986	39.3972
556.879	31.4299
559.771	12.5279
562.664	56.5301
565.557	33.1779
568.45	4.17328
571.342	37.9728
574.235	44.3079
577.128	2.93921
580.02	44.5614
582.913	25.9719
585.806	15.3536
588.699	43.6656
591.591	18.0676
594.484	33.4254
597.377	47.1698
600.269	53.6276
603.162	48.1706
606.055	49.0927
608.947	47.8785
611.84	27.4273
614.733	36.4193
617.626	1.99841
620.518	12.5371
623.411	0.315613
626.304	9.94421
629.196	13.266
632.089	0.897705
634.982	15.2686
637.875	39.4528
640.767	13.8469
643.66	26.2286
646.553	37.5973
649.445	37.2681
652.338	14.7758
655.231	32.4185
658.123	47.7041
661.016	37.4784
663.909	23.3541
666.802	30.2167
669.694	0.375061
672.587	6.37872
675.48	40.1712
678.372	16.3016
681.265	42.5535
684.158	23.4953
687.05	33.1769
689.943	5.94702
692.836	2.97675
695.729	5.01678
698.621	42.8942
701.514	25.6252
704.407	3.62433
707.299	7.1637
710.192	5.21686
713.085	42.4318
715.977	47.6354
718.87	20.8433
721.763	44.2394
724.655	52.2255
727.548	50.6694
730.441	43.7946
733.334	47.9523
736.226	30.9833
739.119	53.5628
742.012	73.8955
744.904	63.1663
747.797	68.1876
750.69	77.7755
753.582	106.94
756.475	87.7326
759.368	91.4865
762.261	133.441
765.153	118.996
768.046	82.4945
770.939	88.1293
773.831	83.7606
776.724	76.1274
779.617	95.1055
782.51	102.565
785.402	70.0136
788.295	93.1818
791.188	99.0145
794.08	88.9186
796.973	77.564
799.866	28.5057
802.758	39.1785
805.651	19.174
808.544	56.9052
811.437	0.91687
814.329	25.3671
817.222	32.2233
820.115	4.42963
823.007	17.7691
825.9	25.0046
828.793	4.10443
831.685	16.3077
834.578	38.7794
837.471	49.4482
840.364	11.5662
843.256	16.1835
846.149	32.3937
849.042	37.2712
851.934	26.7769
854.827	57.1743
857.72	44.5483
860.612	26.2375
863.505	32.4603
866.398	25.6611
869.29	6.57922
872.183	33.8002
875.076	2.46045
877.969	3.2533
880.861	15.8371
883.754	31.4418
886.647	14.0436
889.539	13.6209
892.432	10.9623
895.325	6.44748
898.217	11.3948
901.11	6.21158
904.003	14.4964
906.896	3.64832
909.788	5.26001
912.681	32.4027
915.574	1.84747
918.466	47.2482
921.359	13.4277
924.252	46.1868
927.145	25.8456
930.037	13.6069
932.93	5.37744
935.823	57.2414
938.715	47.9555
941.608	46.2007
944.501	45.8038
947.394	37.2392
950.286	34.198
953.179	66.5101
956.072	40.3075
958.964	43.7896
961.857	30.7584
964.75	51.4191
967.642	57.2778
970.535	55.6728
973.428	50.4434
976.321	31.4976
979.213	46.336
982.106	66.0313
984.999	7.33908
987.891	41.1883
990.784	2.12125
993.677	7.13178
996.569	43.3136
999.462	35.0132
1002.36	38.713
1005.25	41.8174
1008.14	49.8708
1011.03	45.6586
1013.93	30.4781
1016.82	21.1703
1019.71	2.30002
1022.6	7.87213
1025.5	12.2167
1028.39	0.198608
1031.28	38.8906
1034.17	6.63983
1037.07	43.6968
1039.96	49.472
1042.85	37.7377
1045.74	59.6529
1048.64	65.7594
1051.53	46.6167
1054.42	32.777
1057.32	10.4044
1060.21	4.59259
1063.1	43.9901
1065.99	18.4675
1068.89	35.1035
1071.78	18.5435
1074.67	20.3031
1077.57	24.003
1080.46	25.9607
1083.35	22.8263
1086.24	30.9556
1089.14	24.2295
1092.03	50.9852
1094.92	27.9486
1097.81	36.6234
1100.71	50.6942
1103.6	20.6395
1106.49	13.4033
1109.38	12.7789
1112.28	33.6715
1115.17	37.3178
1118.06	0.204407
1120.96	7.06085
1123.85	51.6245
1126.74	27.2173
1129.63	42.453
1132.53	11.9747
1135.42	26.1263
1138.31	55.2032
1141.2	20.4565
1144.1	2.36233
1146.99	18.1805
1149.88	36.7492
1152.78	20.7237
1155.67	22.5787
1158.56	23.6524
1161.45	36.273
1164.35	22.5189
1167.24	27.7348
1170.13	14.7239
1173.02	13.7086
1175.92	38.3683
1178.81	23.8959
1181.7	45.3945
1184.6	33.6756
1187.49	1.05313
1190.38	42.5932
1193.27	39.883
1196.17	46.1504
1199.06	34.4641
1201.95	59.6669
1204.84	11.763
1207.74	54.3416
1210.63	55.5989
1213.52	56.0239
1216.41	22.3205
1219.31	40.9407
1222.2	17.1135
1225.09	19.5086
1227.98	62.4428
1230.88	34.3401
1233.77	52.758
1236.66	74.596
1239.56	54.1217
1242.45	32.6877
1245.34	31.7661
1248.23	30.0563
1251.13	32.828
1254.02	33.2348
1256.91	33.7145
1259.81	28.8355
1262.7	40.7594
1265.59	28.8115
1268.48	0.69696
1271.38	8.66672
