Measurement: Raman, 532 nm, unoriented, Raman Data Processed
Mineral: Violarite
Rruff sample: R060846
Ideal chemistry: Fe^2+^Ni^3+^_2_S_4_
Locality: Perseverance mine, Agnew, Western Australia
Source: Michael Scott
Description: Violet metallic massive
Measured chemistry: lighter phase: (Fe^2+^_0.99_Co_0.01_)_Σ=1_Ni^3+^_2.00_S_4.00_   ; trace amounts of Cu ; darker phase: (Fe_0.98_Co_0.01_Ni_0.01_)_Σ=1_S_2.00_
Raman shift (cm-1)	intensity
120.076	0
122.969	120.497
125.862	56.6573
128.755	27.4817
131.647	51.4681
134.54	71.2549
137.433	115.596
140.325	183.404
143.218	105.883
146.111	105.396
149.003	100.611
151.896	87.9565
154.789	105.68
157.681	64.1864
160.574	53.624
163.467	102.457
166.36	61.257
169.252	46.6674
172.145	64.9723
175.038	51.0763
177.93	41.2304
180.823	18.7312
183.716	40.7041
186.608	65.1398
189.501	27.8989
192.394	9.72046
195.286	0.773071
198.179	6.93738
201.072	17.1515
203.965	38.6963
206.857	21.1992
209.75	9.93262
212.643	36.2609
215.535	68.0251
218.428	89.7936
221.321	68.5314
224.214	44.4421
227.106	71.3711
229.999	54.853
232.892	81.4644
235.784	104.112
238.677	79.7322
241.57	93.8159
244.462	114.323
247.355	92.4669
250.248	87.755
253.141	52.7929
256.033	49.7102
258.926	26.5787
261.819	9.58362
264.711	6.70764
267.604	10.4547
270.497	23.8359
273.389	11.3253
276.282	16.4474
279.175	3.88818
282.067	49.7458
284.96	5.724
287.853	4.84595
290.746	3.70776
293.638	15.0623
296.531	17.9741
299.424	67.5765
302.316	112.108
305.209	219.182
308.102	401.968
310.994	782.487
313.887	1380
316.78	2068.97
319.673	2879.32
322.565	3192.47
325.458	2104.22
328.351	1098.16
331.243	841.083
334.136	808.655
337.029	848.902
339.921	843.097
342.814	688.65
345.707	457.122
348.599	328.204
351.492	293.335
354.385	278.086
357.278	301.406
360.17	403.477
363.063	473.877
365.956	753.108
368.848	1078.02
371.741	1337.08
374.634	1613.02
377.526	1525.68
380.419	1270.89
383.312	1069.36
386.205	847.696
389.097	591.317
391.99	427.347
394.883	309.363
397.775	158.872
400.668	156.58
403.561	72.1455
406.454	61.2432
409.346	57.0555
412.239	36.8426
415.132	77.4636
418.024	71.2795
420.917	101.002
423.81	83.0601
426.702	60.7094
429.595	94.8
432.488	71.4209
435.38	53.781
438.273	47.0017
441.166	66.4404
444.059	34.6818
446.951	2.27173
449.844	4.81665
452.737	32.5072
455.629	22.5862
458.522	12.9685
461.415	7.14087
464.308	0.118774
467.2	6.1825
470.093	39.8341
472.986	6.43372
475.878	13.8624
478.771	17.2013
481.664	24.3757
484.556	16.5521
487.449	50.2756
490.342	30.5712
493.234	24.5916
496.127	39.9423
499.02	57.3439
501.913	45.9699
504.805	54.7004
507.698	45.7855
510.591	47.1366
513.483	60.4602
516.376	83.7531
519.269	79.4385
522.161	105.042
525.054	61.7025
527.947	76.5255
530.84	69.3444
533.732	43.7229
536.625	73.364
539.518	66.4725
542.41	75.6137
545.303	101.296
548.196	72.0159
551.088	59.7531
553.981	45.0317
556.874	31.8513
559.766	49.0857
562.659	25.9672
565.552	42.8374
568.445	26.2012
571.337	32.3196
574.23	3.13013
577.123	30.7531
580.015	8.34729
582.908	14.2447
585.801	7.71387
588.693	3.75671
591.586	10.8269
594.479	3.87439
597.372	13.6479
600.264	20.8828
603.157	2.08777
606.05	23.2133
608.942	16.1105
611.835	53.2375
614.728	21.9006
617.62	9.68481
620.513	29.1682
623.406	59.0388
626.298	15.8445
629.191	19.2349
632.084	66.8331
634.977	7.24915
637.869	20.1622
640.762	54.436
643.655	51.9734
646.547	34.9952
649.44	50.6596
652.333	40.806
655.226	68.7935
658.118	46.8344
661.011	76.5249
663.904	60.0013
666.796	57.0006
669.689	63.5971
672.582	61.6311
675.474	24.9628
678.367	31.8019
681.26	55.6501
684.153	26.359
687.045	95.8174
689.938	70.6549
692.831	69.8842
695.723	38.9211
698.616	38.2655
701.509	62.54
704.401	72.0116
707.294	19.2929
710.187	48.6003
713.08	66.7294
715.972	49.562
718.865	58.6002
721.758	56.7918
724.65	83.4121
727.543	47.507
730.436	58.869
733.328	63.8018
736.221	41.483
739.114	66.8684
742.006	16.1904
744.899	4.71973
747.792	11.8455
750.685	12.6451
753.577	42.1569
756.47	55.8901
759.363	17.3943
762.255	27.8854
765.148	11.6923
768.041	24.988
770.933	51.1215
773.826	42.6001
776.719	24.2416
779.612	9.99683
782.504	23.2777
785.397	15.1588
788.29	30.1136
791.182	43.0375
794.075	11.7631
796.968	8.50598
799.86	9.74182
802.753	14.8162
805.646	21.4135
808.538	20.1425
811.431	23.5309
814.324	25.9768
817.217	60.615
820.109	0.904297
823.002	46.9528
825.895	23.1393
828.787	32.3798
831.68	22.9818
834.573	36.2039
837.466	61.7866
840.358	12.4889
843.251	17.1252
846.144	28.8356
849.036	36.8619
851.929	2.47333
854.822	8.36017
857.714	53.7185
860.607	13.3016
863.5	30.4388
866.393	42.3482
869.285	39.5519
872.178	8.57086
875.071	5.26831
877.963	38.0384
880.856	2.99121
883.749	47.5395
886.641	27.9614
889.534	15.4827
892.427	80.376
895.319	50.9304
898.212	37.7591
901.105	33.5262
903.998	39.1052
906.89	55.2611
909.783	31.5269
912.676	52.7469
915.568	41.7624
918.461	13.8415
921.354	33.7441
924.246	99.0939
927.139	41.3704
930.032	20.752
932.925	38.7524
935.817	35.6346
938.71	69.1692
941.603	62.6665
944.495	16.2893
947.388	44.9868
950.281	68.3951
953.173	58.5042
956.066	32.6562
958.959	51.806
961.851	28.9968
964.744	45.004
967.637	63.6048
970.53	61.4121
973.422	61.6724
976.315	47.9615
979.208	27.7925
982.1	44.5102
984.993	26.8739
987.886	13.0239
990.779	19.5572
993.671	46.2547
996.564	35.2692
999.457	8.99213
1002.35	12.2488
1005.24	38.0469
1008.13	23.5926
1011.03	37.6532
1013.92	51.833
1016.81	54.3184
1019.71	30.6238
1022.6	43.6661
1025.49	79.3069
1028.38	52.9044
1031.28	49.2629
1034.17	48.2696
1037.06	24.0963
1039.95	36.9562
1042.85	55.3043
1045.74	59.7477
1048.63	50.2129
1051.53	26.7859
1054.42	92.4927
1057.31	55.2052
1060.2	51.1429
1063.1	93.3113
1065.99	21.7086
1068.88	58.9702
1071.77	12.4232
1074.67	23.7596
1077.56	19.8888
1080.45	9.24048
1083.35	31.1597
1086.24	0.967163
1089.13	15.011
1092.02	2.52942
1094.92	41.0311
1097.81	29.5524
1100.7	38.9872
1103.59	21.0265
1106.49	56.166
1109.38	56.5813
1112.27	39.2933
1115.16	12.1936
1118.06	30.8464
1120.95	33.2296
1123.84	20.6943
1126.73	67.6728
1129.63	35.1401
1132.52	50.134
1135.41	36.4534
1138.31	5.65064
1141.2	37.0624
1144.09	38.9238
1146.98	0.717041
1149.88	14.0391
1152.77	11.6007
1155.66	42.2269
1158.56	39.7538
1161.45	45.6585
1164.34	44.4614
1167.23	8.33716
1170.13	9.07849
1173.02	37.1676
1175.91	34.1578
1178.8	18.8801
1181.7	35.0676
1184.59	52.4951
1187.48	50.015
1190.38	18.8916
1193.27	18.6055
1196.16	1.49084
1199.05	37.3221
1201.94	35.0583
1204.84	32.277
1207.73	29.8297
1210.62	59.9749
1213.52	49.2241
1216.41	30.4399
1219.3	53.9228
1222.19	27.8273
1225.09	27.5111
1227.98	11.1761
1230.87	46.9026
1233.77	34.5869
1236.66	37.2587
1239.55	26.3403
1242.44	0
