Measurement: Raman, 532 nm, unoriented, Raman Data Processed
Mineral: Viseite
Rruff sample: R060544
Ideal chemistry: Ca_10_Al_24_(PO_4_)_14_(SiO_4_)_6_F_3_O_13_72H_2_O
Locality: Champion mine, White Mountains, Mono County, California, USA
Source: Michael Scott
Description: Pale pink granular associated with deep blue scorzalite and light blue trolleite
Raman shift (cm-1)	intensity
172.15	0
175.042	482.91
177.935	942.184
180.828	1354.21
183.721	1448.2
186.613	1234.04
189.506	934.48
192.399	957.791
195.291	534.498
198.184	167.01
201.077	154.494
203.969	199.965
206.862	24.236
209.755	46.049
212.648	120.275
215.54	109.24
218.433	20.752
221.326	196.551
224.218	444.803
227.111	607.545
230.004	870.482
232.896	1053.1
235.789	1595.77
238.682	1878.21
241.574	2325.42
244.467	2808.57
247.36	3447.19
250.253	3954.36
253.145	4328.33
256.038	4524.55
258.931	4288.79
261.823	3584.02
264.716	2806.73
267.609	2167.94
270.501	1720.03
273.394	1289.03
276.287	1113.98
279.18	863.34
282.072	782.596
284.965	642.877
287.858	427.42
290.75	245.314
293.643	6.416
296.536	27.553
299.429	39.52
302.321	24.465
305.214	84.168
308.107	138.432
310.999	249.93
313.892	230.264
316.785	151.625
319.677	114.836
322.57	168.375
325.463	285.619
328.356	374.307
331.248	467.055
334.141	564.805
337.034	549.891
339.926	483.15
342.819	503.564
345.712	435.443
348.604	577.418
351.497	775.26
354.39	906.094
357.283	1140.61
360.175	1287.54
363.068	1541.61
365.961	1641.51
368.853	1650.19
371.746	1630.07
374.639	1772.14
377.531	1836.7
380.424	1762.22
383.317	1675.38
386.21	1599.07
389.102	1578.12
391.995	1704.05
394.888	1989.24
397.78	1994.25
400.673	1831.57
403.566	1271.76
406.459	902.484
409.351	504.627
412.244	123.619
415.137	21.574
418.029	60.201
420.922	9.027
423.815	29.908
426.707	19.016
429.6	14.162
432.493	23.422
435.386	8.213
438.278	54.033
441.171	110.604
444.064	189.291
446.956	230.818
449.849	334.643
452.742	389.297
455.634	468.682
458.527	583.918
461.42	771.775
464.313	845.799
467.205	805.07
470.098	731.5
472.991	481.664
475.883	302.662
478.776	172.824
481.669	7.893
484.561	2.867
487.454	77.025
490.347	102.316
493.24	39.529
496.132	26.205
499.025	2.541
501.918	66.084
504.81	18.043
507.703	15.254
510.596	191.955
513.489	231.311
516.381	294.76
519.274	367.74
522.167	733.57
525.059	807.273
527.952	907.561
530.845	584.422
533.737	195.753
536.63	2.472
539.523	153.304
542.416	144.16
545.308	204.11
548.201	262.67
551.094	245.074
553.986	278.786
556.879	320.621
559.772	368.134
562.664	350.354
565.557	480.405
568.45	470.852
571.343	424.062
574.235	588.21
577.128	671.339
580.021	781.463
582.913	908.836
585.806	883.176
588.699	887.34
591.591	806.501
594.484	844.38
597.377	901.351
600.27	952.222
603.162	992.387
606.055	1193.99
608.948	1424.79
611.84	1551.02
614.733	1537.41
617.626	1456.89
620.518	1256.87
623.411	1095.13
626.304	991.558
629.197	980.808
632.089	850.948
634.982	640.607
637.875	457.633
640.768	462.814
643.66	291.201
646.553	221.359
649.446	152.61
652.338	87.726
655.231	163.283
658.124	117.34
661.016	110.405
663.909	42.573
666.802	23.771
669.695	20.949
672.587	89.999
675.48	50.795
678.373	37.258
681.265	3.943
684.158	72.843
687.051	9.072
689.943	16.353
692.836	0.132
695.729	162.536
698.622	225.179
701.514	290.954
704.407	283.77
707.3	300.096
710.192	220.562
713.085	218.051
715.978	175.694
718.87	220.456
721.763	256.971
724.656	199.437
727.549	100.167
730.441	110.948
733.334	166.211
736.227	76.992
739.119	135.553
742.012	81.231
744.905	50.351
747.797	130.127
750.69	149.144
753.583	79.253
756.476	58.246
759.368	11.847
762.261	50.142
765.154	10.861
768.046	33.049
770.939	75.101
773.832	33.652
776.724	9.233
779.617	31.43
782.51	73.203
785.403	78.624
788.295	118.604
791.188	144.294
794.081	179.33
796.973	168.884
799.866	197.65
802.759	175.283
805.651	142.87
808.544	237.322
811.437	254.223
814.33	387.065
817.222	297.812
820.115	375.812
823.008	457.006
825.9	378.367
828.793	346.918
831.686	328.369
834.578	348.297
837.471	306.95
840.364	294.586
843.257	206.414
846.149	229.559
849.042	224.696
851.935	222.453
854.827	202.918
857.72	44.164
860.613	128.221
863.505	57.796
866.398	5.249
869.291	39.208
872.184	36.136
875.076	5.389
877.969	40.052
880.862	19.26
883.755	65.428
886.647	100.216
889.54	147.1
892.433	261.564
895.325	202.938
898.218	195.469
901.111	169.553
904.003	196.554
906.896	228.91
909.789	228.733
912.682	244.481
915.574	239.401
918.467	142.367
921.36	136.028
924.252	166.743
927.145	160.053
930.038	71.915
932.93	85.458
935.823	56.022
938.716	47.02
941.609	35.738
944.501	52.008
947.394	17.106
950.287	18.914
953.179	43.146
956.072	188.468
958.965	360.561
961.857	595.913
964.75	838.541
967.643	1061.61
970.536	1382.86
973.428	1699.85
976.321	2010.92
979.214	2098.01
982.106	2178.65
984.999	2383.38
987.892	2071.96
990.784	1860.58
993.677	1645.35
996.57	1440.34
999.463	1410.6
1002.36	1322.06
1005.25	1173.05
1008.14	1038.73
1011.03	1031.87
1013.93	1211.23
1016.82	1581.44
1019.71	2678.64
1022.6	4076.41
1025.5	4966.73
1028.39	4697.6
1031.28	4037.48
1034.17	3555.71
1037.07	3125.04
1039.96	2598.43
1042.85	1902.99
1045.75	1436.03
1048.64	955.402
1051.53	631.079
1054.42	305.69
1057.32	166.214
1060.21	45.568
1063.1	45.82
1065.99	43.664
1068.89	55.388
1071.78	24.954
1074.67	33.83
1077.57	37.471
1080.46	80.687
1083.35	146.213
1086.24	246.488
1089.14	359.941
1092.03	588.256
1094.92	777.756
1097.81	851.646
1100.71	940.215
1103.6	1011.36
1106.49	1184.91
1109.38	1475.17
1112.28	1703.47
1115.17	1556.42
1118.06	1322.02
1120.96	1140.02
1123.85	997.481
1126.74	858.932
1129.63	714.444
1132.53	587.932
1135.42	534.404
1138.31	489.427
1141.2	429.747
1144.1	262.954
1146.99	272.926
1149.88	224.623
1152.78	126.436
1155.67	110.249
1158.56	105.09
1161.45	114.904
1164.35	96.603
1167.24	90.031
1170.13	103.737
1173.03	31.253
1175.92	17.045
1178.81	0.292
1181.7	15.363
1184.6	18.375
1187.49	37.867
1190.38	100.33
1193.27	121.688
1196.17	37.896
1199.06	59.528
1201.95	99.965
1204.84	92.749
1207.74	43.051
1210.63	100.944
1213.52	125.21
1216.41	163.527
1219.31	221.815
1222.2	237.51
1225.09	247.188
1227.99	168.497
1230.88	190.675
1233.77	79.703
1236.66	46.176
1239.56	8.546
1242.45	0
