Measurement: Raman, 785 nm, unoriented, Raman Data Processed
Mineral: Vishnevite
Rruff sample: R061139
Ideal chemistry: Na_8_(AlSiO_4_)_6_O_24_(SO_4_)2H_2_O
Locality: Vishnevyite Mountains, Urals, U.S.S.R.
Source: Michael Scott
Description: Light blue irregular granular masses
Raman shift (cm-1)	intensity
106.847	0
109.739	18.8523
112.632	26.7243
115.525	38.1499
118.417	2.64629
121.31	15.1212
124.203	20.5713
127.095	53.4459
129.988	98.8937
132.881	75.743
135.774	36.0631
138.666	41.5012
141.559	93.6754
144.452	178.574
147.344	246.111
150.237	225.762
153.13	216.345
156.022	202.009
158.915	207.305
161.808	238.095
164.701	266.816
167.593	319.634
170.486	336.302
173.379	355.203
176.271	383.123
179.164	403.212
182.057	412.312
184.949	428.178
187.842	444.676
190.735	452.466
193.627	501.042
196.52	500.702
199.413	498.758
202.306	528.242
205.198	485.699
208.091	501.88
210.984	453.749
213.876	419.273
216.769	406.796
219.662	387.805
222.554	334.042
225.447	308.213
228.34	256.491
231.232	255.996
234.125	224.79
237.018	236.188
239.911	239.541
242.803	279.442
245.696	330.673
248.589	343.695
251.481	362.375
254.374	335.213
257.267	297.496
260.159	218.397
263.052	189.209
265.945	119.448
268.838	84.1236
271.73	64.7254
274.623	78.1597
277.516	128.253
280.408	237.943
283.301	311.618
286.194	279.574
289.087	187.928
291.979	68.2657
294.872	23.1705
297.765	7.42151
300.657	4.13293
303.55	15.7459
306.443	26.2248
309.335	33.8177
312.228	19.5403
315.121	0.772766
318.014	20.799
320.906	78.5126
323.799	89.3233
326.692	94.0902
329.584	95.8653
332.477	128.877
335.37	99.6102
338.262	132.046
341.155	87.0804
344.048	67.6048
346.94	57.7717
349.833	50.2805
352.726	52.6491
355.619	40.2052
358.511	23.1558
361.404	6.06592
364.297	5.08923
367.189	12.1784
370.082	5.27399
372.975	0.00177
375.868	6.32892
378.76	4.3584
381.653	28.3606
384.546	34.275
387.438	33.9443
390.331	24.2413
393.224	32.7902
396.116	32.6808
399.009	42.6204
401.902	81.7172
404.795	88.128
407.687	72.6111
410.58	82.1803
413.473	106.729
416.365	166.845
419.258	232.636
422.151	283.75
425.043	373.168
427.936	412.918
430.829	416.077
433.721	425.859
436.614	415.078
439.507	411.928
442.4	376.07
445.292	433.338
448.185	518.113
451.078	541.578
453.97	616.88
456.863	591.835
459.756	624.075
462.649	592.519
465.541	512.357
468.434	444.543
471.327	316.279
474.219	229.467
477.112	172.395
480.005	156.025
482.897	159.005
485.79	201.29
488.683	264.16
491.575	344.037
494.468	426.342
497.361	515.563
500.254	536.369
503.146	585.169
506.039	558.999
508.932	453.029
511.824	369.83
514.717	228.946
517.61	161.458
520.503	86.0754
523.395	87.2492
526.288	23.514
529.181	15.0998
532.073	8.40924
534.966	0.511963
537.859	4.74835
540.751	0.254822
543.644	16.8162
546.537	9.46204
549.429	6.14081
552.322	9.84155
555.215	0.882385
558.107	17.1826
561	6.95764
563.893	4.65753
566.786	4.45404
569.678	14.3526
572.571	11.5502
575.464	12.9351
578.356	7.50928
581.249	17.0676
584.142	15.4627
587.034	21.9792
589.927	13.5707
592.82	30.9062
595.713	28.9634
598.605	48.9393
601.498	63.1182
604.391	69.7893
607.283	96.2405
610.176	148.36
613.069	190.853
615.962	204.179
618.854	215.333
621.747	251.832
624.64	251.603
627.532	255.302
630.425	262.211
633.318	198.301
636.21	123.964
639.103	70.9661
641.996	46.9462
644.889	32.8633
647.781	6.33517
650.674	0.024292
653.567	4.84433
656.459	4.95178
659.352	20.2705
662.245	19.7029
665.138	26.2903
668.03	31.9221
670.923	44.767
673.816	50.5076
676.708	57.328
679.601	78.6679
682.494	63.5585
685.386	48.472
688.279	41.3905
691.172	48.9447
694.064	19.519
696.957	9.3891
699.85	15.4692
702.743	3.21845
705.635	2.5358
708.528	18.0479
711.421	15.817
714.313	4.97055
717.206	17.7956
720.099	17.4684
722.991	9.87082
725.884	11.2598
728.777	12.9122
731.67	8.47632
734.562	12.7909
737.455	14.9559
740.348	20.8333
743.24	16.7269
746.133	46.0607
749.026	38.5263
751.918	62.1024
754.811	51.5934
757.704	73.9746
760.596	38.3999
763.489	46.1778
766.382	20.8398
769.275	29.9488
772.167	2.67236
775.06	9.83917
777.953	15.8402
780.845	1.21283
783.738	8.89819
786.631	16.1653
789.524	0.044739
792.416	10.6997
795.309	16.5332
798.202	17.2098
801.094	1.88501
803.987	12.5697
806.88	13.6701
809.772	12.2897
812.665	4.30722
815.558	0.433136
818.451	9.36792
821.343	7.81332
824.236	1.62558
827.129	11.6937
830.021	22.3389
832.914	17.8578
835.807	19.3543
838.699	8.08316
841.592	38.0622
844.485	42.0951
847.378	8.35785
850.27	20.2433
853.163	3.75412
856.056	27.5323
858.948	17.5357
861.841	34.1189
864.734	15.1864
867.626	14.0775
870.519	11.6211
873.412	12.9927
876.304	7.53842
879.197	36.3173
882.09	22.5117
884.983	13.3337
887.875	24.9803
890.768	26.944
893.661	12.0473
896.553	6.76172
899.446	13.7056
902.339	11.3095
905.231	12.4055
908.124	0.20697
911.017	3.38266
913.91	5.69986
916.802	19.4377
919.695	10.3444
922.588	9.82767
925.48	10.4265
928.373	2.61572
931.266	16.6493
934.159	3.18582
937.051	5.26831
939.944	6.03192
942.837	3.91299
945.729	31.5899
948.622	36.0861
951.515	55.4598
954.407	77.8123
957.3	102.294
960.193	123.299
963.085	136.377
965.978	142.901
968.871	186.873
971.764	286.067
974.656	380.925
977.549	602.579
980.442	910.136
983.334	1090.49
986.227	1468.19
989.12	2066.43
992.013	2395.56
994.905	2295.89
997.798	1580.26
1000.69	707.082
1003.58	319.321
1006.48	247.805
1009.37	248.922
1012.26	258.054
1015.15	240.642
1018.05	285.211
1020.94	298.988
1023.83	280.438
1026.72	255.874
1029.62	193.521
1032.51	151.596
1035.4	116.165
1038.3	76.1186
1041.19	52.4819
1044.08	34.2452
1046.97	34.7895
1049.87	17.4714
1052.76	42.6465
1055.65	31.045
1058.55	35.333
1061.44	21.0553
1064.33	12.0503
1067.22	4.12872
1070.12	1.14285
1073.01	10.8473
1075.9	9.25079
1078.79	18.0075
1081.69	11.7929
1084.58	25.687
1087.47	25.599
1090.36	23.2469
1093.26	31.931
1096.15	34.1885
1099.04	16.6037
1101.93	22.3882
1104.83	12.6732
1107.72	19.0953
1110.61	10.8854
1113.51	9.90579
1116.4	9.84497
1119.29	18.7845
1122.18	21.0808
1125.08	33.3308
1127.97	25.1572
1130.86	49.9135
1133.76	58.2861
1136.65	66.7245
1139.54	56.1938
1142.43	55.0932
1145.33	53.6006
1148.22	62.8248
1151.11	58.0867
1154	31.7057
1156.9	47.5476
1159.79	39.8352
1162.68	36.3136
1165.57	13.6876
1168.47	0.635437
1171.36	7.21515
1174.25	1.78668
1177.14	6.5213
1180.04	9.53693
1182.93	13.8284
1185.82	5.99512
1188.72	25.4805
1191.61	18.4905
1194.5	44.4628
1197.39	68.5936
1200.29	69.943
1203.18	112.604
1206.07	136.732
1208.96	139
1211.86	175.865
1214.75	202.709
1217.64	228.422
1220.54	213.419
1223.43	226.97
1226.32	198.453
1229.21	157.267
1232.11	116.53
1235	74.2741
1237.89	40.724
1240.79	15.1223
1243.68	0.013428
