Measurement: Raman, 532 nm, unoriented, Raman Data Processed
Mineral: Vishnevite
Rruff sample: R061139
Ideal chemistry: Na_8_(AlSiO_4_)_6_O_24_(SO_4_)2H_2_O
Locality: Vishnevyite Mountains, Urals, U.S.S.R.
Source: Michael Scott
Description: Light blue irregular granular masses
Raman shift (cm-1)	intensity
158.859	0
161.752	14.7422
164.644	16.4885
167.537	70.4949
170.43	102.028
173.322	173.6
176.215	235.18
179.108	324.909
182.001	358.042
184.893	416.269
187.786	436.822
190.679	462.279
193.571	529.606
196.464	594.093
199.357	662.04
202.25	668.275
205.142	700.565
208.035	690.971
210.928	720.793
213.82	612.943
216.713	556.719
219.606	542.772
222.498	481.932
225.391	460.719
228.284	462.341
231.177	366.293
234.069	358.74
236.962	378.273
239.855	375.26
242.747	478.848
245.64	516.202
248.533	528.307
251.425	579.244
254.318	548.424
257.211	483.128
260.103	384.549
262.996	284.512
265.889	170.544
268.782	125.036
271.674	107.526
274.567	148.169
277.46	285.304
280.352	404.729
283.245	574.424
286.138	535.531
289.031	332.408
291.923	137.985
294.816	104.987
297.709	36.9355
300.601	1.28955
303.494	34.5549
306.387	34.1233
309.279	15.5095
312.172	28.4568
315.065	23.7339
317.958	111.966
320.85	96.3835
323.743	154.346
326.636	172.79
329.528	188.113
332.421	188.449
335.314	162.525
338.207	208.201
341.099	177.487
343.992	140.048
346.885	111.963
349.777	75.0271
352.67	98.2165
355.563	26.5256
358.455	5.27783
361.348	28.6887
364.241	4.42139
367.134	45.522
370.026	33.7602
372.919	19.0371
375.812	6.65698
378.704	31.2314
381.597	102.285
384.49	113.119
387.382	103.022
390.275	41.9548
393.168	48.4543
396.06	39.843
398.953	117.588
401.846	97.176
404.739	97.75
407.631	103.022
410.524	70.7266
413.417	150.838
416.309	180.81
419.202	250.977
422.095	379.717
424.988	529.572
427.88	647.386
430.773	705.947
433.666	768.974
436.558	808.721
439.451	790.885
442.344	813.824
445.236	988.227
448.129	1118.6
451.022	1256.58
453.914	1347.95
456.807	1312.27
459.7	1242.35
462.593	1167.51
465.485	1020.24
468.378	855.9
471.271	599.266
474.163	423.994
477.056	344.611
479.949	284.379
482.841	303.935
485.734	358.675
488.627	501.152
491.52	620.725
494.412	767.318
497.305	933.819
500.198	968.164
503.09	977.199
505.983	947.793
508.876	805.534
511.769	600.622
514.661	382.287
517.554	272.426
520.447	163.621
523.339	60.3789
526.232	42.1284
529.125	6.29541
532.017	21.5889
534.91	25.3921
537.803	12.3193
540.696	40.3755
543.588	2.58203
546.481	13.0176
549.374	21.8638
552.266	2.57715
555.159	1.17285
558.052	11.5083
560.944	2.71826
563.837	49.3462
566.73	8.88086
569.622	7.38184
572.515	16.1685
575.408	62.5581
578.301	22.7568
581.193	35.7134
584.086	28.4009
586.979	7.91357
589.871	73.7935
592.764	59.9756
595.657	104.033
598.549	122.509
601.442	145.148
604.335	191.967
607.228	279.37
610.12	395.097
613.013	526.573
615.906	623.08
618.798	618.565
621.691	646.665
624.584	713.486
627.477	673.727
630.369	622.184
633.262	549.624
636.155	374.108
639.047	183.769
641.94	103.55
644.833	91.2563
647.726	37.6807
650.618	3.7876
653.511	37.2905
656.404	63.2085
659.296	23.8677
662.189	70.5054
665.082	44.0776
667.974	98.6011
670.867	64.1919
673.76	116.255
676.653	162.739
679.545	168.318
682.438	127.79
685.331	139.057
688.223	64.4385
691.116	95.334
694.009	68.0444
696.901	34.0337
699.794	11.3496
702.687	51.3076
705.58	52.1538
708.472	60.8057
711.365	16.4858
714.258	54.269
717.15	24.8164
720.043	48.023
722.936	23.727
725.828	24.7246
728.721	8.32227
731.614	26.6396
734.506	9.27734
737.399	6.32275
740.292	4.11035
743.185	56.2432
746.077	65.521
748.97	60.3906
751.863	83.5923
754.755	132.258
757.648	132.758
760.541	131.588
763.433	96.6274
766.326	56.812
769.219	18.0527
772.112	72.2959
775.004	29.8223
777.897	52.1279
780.79	47.9717
783.682	7.74316
786.575	36.3579
789.468	21.2075
792.361	27.5737
795.253	28.437
798.146	18.3413
801.039	36.2905
803.931	42.6372
806.824	24.0942
809.717	18.2178
812.609	21.103
815.502	40.4888
818.395	53.9316
821.288	3.59717
824.18	53.6987
827.073	62.6333
829.966	12.041
832.858	61.2207
835.751	0.336426
838.644	60.6123
841.536	50.6245
844.429	89.7144
847.322	75.4028
850.215	39.5767
853.107	95.3535
856	35.3691
858.893	38.0444
861.785	15.7295
864.678	78.4404
867.571	48.9888
870.463	80.8237
873.356	92.5337
876.249	93.1045
879.141	64.2358
882.034	32.7647
884.927	93.1489
887.82	58.8076
890.712	61.1431
893.605	35.5386
896.498	45.228
899.39	9.02441
902.283	4.15283
905.176	48.2964
908.068	40.3091
910.961	1.12402
913.854	14.417
916.747	76.6519
919.639	41.9448
922.532	7.62988
925.425	51.5347
928.317	19.8477
931.21	39.7227
934.103	4.00195
936.995	28.457
939.888	22.1523
942.781	45.8315
945.674	45.3935
948.566	87.3818
951.459	177.453
954.352	222.193
957.244	317.627
960.137	349.461
963.03	395.666
965.923	408.318
968.815	511.502
971.708	623.95
974.601	886.151
977.493	1330.59
980.386	1907.52
983.279	2507.31
986.171	3354.4
989.064	4588.28
991.957	5395.34
994.85	5103.6
997.742	3655.76
1000.63	1654.94
1003.53	859.5
1006.42	544.844
1009.31	555.423
1012.21	505.949
1015.1	589.04
1017.99	619.202
1020.88	594.821
1023.78	642.001
1026.67	469.619
1029.56	423.688
1032.45	309.387
1035.35	239.32
1038.24	121.264
1041.13	110.321
1044.03	53.1714
1046.92	30.2354
1049.81	69.2378
1052.7	38.0859
1055.6	70.0088
1058.49	63.4619
1061.38	37.7285
1064.27	22.8355
1067.17	8.05518
1070.06	39.1148
1072.95	6.73633
1075.85	35.2461
1078.74	35.6553
1081.63	46.2876
1084.52	95.0889
1087.42	118.332
1090.31	144.347
1093.2	150.354
1096.09	136.135
1098.99	122.196
1101.88	101.208
1104.77	51.3306
1107.66	70.6362
1110.56	88.2231
1113.45	0.816406
1116.34	81.521
1119.24	76.7148
1122.13	182.016
1125.02	164.64
1127.91	102.664
1130.81	231.565
1133.7	242.904
1136.59	233.52
1139.48	288.06
1142.38	302.191
1145.27	328.225
1148.16	336.421
1151.06	331.067
1153.95	280.916
1156.84	278.212
1159.73	301.588
1162.63	271.445
1165.52	190.102
1168.41	174.49
1171.3	84.1025
1174.2	67.5488
1177.09	110.53
1179.98	52.8916
1182.88	38.3872
1185.77	60.6777
1188.66	26.0576
1191.55	19.3247
1194.45	33.5503
1197.34	17.5312
1200.23	36.4477
1203.12	41.6065
1206.02	45.6489
1208.91	3.25244
1211.8	68.1274
1214.69	2.79199
1217.59	2.3667
1220.48	15.581
1223.37	83.5181
1226.27	34.6904
1229.16	57.3662
1232.05	42.3852
1234.94	57.1636
1237.84	90.1113
1240.73	20.0747
1243.62	58.0107
1246.52	46.6977
1249.41	85.5874
1252.3	105.418
1255.19	95.8179
1258.09	101.137
1260.98	45.5308
1263.87	75.9365
1266.76	70.4092
1269.66	60.4922
1272.55	120.587
1275.44	116.233
1278.33	38.7051
1281.23	38.7881
1284.12	75.7349
1287.01	80.6714
1289.9	77.0176
1292.8	40.3237
1295.69	73.2583
1298.58	33.7153
1301.48	22.0303
1304.37	72.0352
1307.26	56.4477
1310.15	29.0903
1313.05	0.848145
