Measurement: Raman, 780 nm, unoriented, Raman Data Processed
Mineral: Vistepite
Rruff sample: R070712
Ideal chemistry: Mn_4_SnB_2_O_2_(Si_2_O_7_)_2_(OH)_2_
Locality: Rhodonite occurrence, Muzeinyi Valley, Inyl'chek Range, Issyk-Kul'skaya Oblast, Kyrgyzstan
Source: Michael Scott
Description: Yellow gemmy fragments associated with rhodonite. Portion of type sample.
Raman shift (cm-1)	intensity
154.718	0
157.611	94.8789
160.503	394.418
163.396	885.148
166.289	940.461
169.181	609.89
172.074	601.329
174.967	678.471
177.859	386.638
180.752	103.908
183.645	21.4424
186.538	49.8584
189.43	8.88135
192.323	42.189
195.216	95.3306
198.108	192.956
201.001	417.18
203.894	631.555
206.786	806.77
209.679	789.886
212.572	910.884
215.465	1033.77
218.357	1102.06
221.25	1140.45
224.143	1022.44
227.035	854.002
229.928	750.86
232.821	744.826
235.714	733.427
238.606	690.515
241.499	783.003
244.392	930.333
247.284	1126.29
250.177	1221.83
253.07	915.038
255.962	504.532
258.855	304.845
261.748	161.837
264.64	182.325
267.533	205.666
270.426	234.68
273.319	309.116
276.211	390.431
279.104	372.034
281.997	575.824
284.889	611.302
287.782	457.562
290.675	227.066
293.567	28.384
296.46	4.02759
299.353	44.1641
302.246	13.5364
305.138	9.95117
308.031	44.0913
310.924	97.6653
313.816	76.9902
316.709	134.444
319.602	270.585
322.495	312.4
325.387	419.758
328.28	502.045
331.173	646.629
334.065	714.538
336.958	724.304
339.851	557.871
342.743	535.972
345.636	441.625
348.529	420.377
351.421	460.503
354.314	486.791
357.207	437.191
360.1	418.291
362.992	535.784
365.885	590.606
368.778	722.094
371.67	693.996
374.563	837.396
377.456	917.991
380.349	823.039
383.241	561.619
386.134	310.759
389.027	159.605
391.919	8.38257
394.812	24.5823
397.705	27.874
400.597	40.6418
403.49	12.1687
406.383	13.5198
409.276	1.93555
412.168	44.4168
415.061	98.6345
417.954	144.408
420.846	178.816
423.739	285.612
426.632	274.747
429.524	260.682
432.417	193.518
435.31	50.2964
438.202	53.6655
441.095	34.8884
443.988	37.5527
446.881	4.87012
449.773	63.6177
452.666	55.2529
455.559	130.761
458.451	149.836
461.344	266.026
464.237	522.248
467.13	970.447
470.022	1662.17
472.915	2525.96
475.808	3035.66
478.7	3703.41
481.593	4835.48
484.486	6558.53
487.378	8893.32
490.271	10323.3
493.164	8480.36
496.057	5080.89
498.949	2790.14
501.842	1584.86
504.735	992.085
507.627	750.975
510.52	786.09
513.413	904.045
516.305	1465
519.198	2303.89
522.091	3606.46
524.984	5395
527.876	7539.3
530.769	9023.07
533.662	7918.46
536.554	5113.56
539.447	2764.76
542.34	1511.64
545.232	859.421
548.125	659.056
551.018	505.139
553.91	561.326
556.803	787.565
559.696	781.678
562.589	604.698
565.481	297.772
568.374	145.271
571.267	40.137
574.159	71.6721
577.052	96.5188
579.945	43.4907
582.837	71.2026
585.73	351.12
588.623	659.286
591.516	1305.09
594.408	1910.37
597.301	2311.87
600.194	1909.73
603.086	1308.35
605.979	887.923
608.872	650.402
611.764	572.772
614.657	575.731
617.55	689.731
620.443	878.698
623.335	1077.11
626.228	1098.89
629.121	770.22
632.013	520.888
634.906	265.724
637.799	97.6052
640.692	126.297
643.584	133.33
646.477	165.302
649.37	168.86
652.262	81.9712
655.155	41.4695
658.048	16.8252
660.94	24.0513
663.833	3.17383
666.726	4.33154
669.619	24.7571
672.511	101.153
675.404	209.98
678.297	415.635
681.189	641.217
684.082	1150.31
686.975	1770.65
689.867	2532.11
692.76	3112.87
695.653	2871.18
698.545	1865.86
701.438	1035.49
704.331	559.685
707.224	382.363
710.116	352.363
713.009	353.979
715.902	434.793
718.794	419.788
721.687	327.193
724.58	190.561
727.472	276.392
730.365	277.08
733.258	250.787
736.151	224.785
739.043	150.399
741.936	96.7419
744.829	150.975
747.721	136.929
750.614	69.6184
753.507	76.9148
756.399	98.8721
759.292	95.1543
762.185	96.0142
765.078	20.3469
767.97	31.2283
770.863	22.1379
773.756	14.7419
776.648	8.31982
779.541	20.2346
782.434	27.0391
785.327	27.2537
788.219	10.021
791.112	7.25781
794.005	28.2195
796.897	11.1372
799.79	5.81421
802.683	9.97046
805.575	30.0059
808.468	34.8232
811.361	26.7817
814.254	42.6582
817.146	41.4543
820.039	79.9609
822.932	19.636
825.824	118.218
828.717	117.039
831.61	173.663
834.502	186.99
837.395	163.775
840.288	190.401
843.181	114.384
846.073	92.1702
848.966	113.557
851.859	114.763
854.751	111.937
857.644	89.563
860.537	72.4363
863.429	94.9893
866.322	70.3621
869.215	90.5234
872.107	51.0012
875	81.0662
877.893	92.9536
880.786	47.8965
883.678	54.009
886.571	85.3367
889.464	86.5059
892.356	96.0249
895.249	37.8999
898.142	30.9282
901.034	55.783
903.927	31.4038
906.82	17.3294
909.713	14.0466
912.605	17.2947
915.498	24.8294
918.391	30.3435
921.283	8.92065
924.176	26.8284
927.069	12.2825
929.962	0.384033
932.854	31.033
935.747	49.25
938.64	32.4302
941.532	109.825
944.425	130.519
947.318	207.274
950.21	276.009
953.103	330.875
955.996	471.508
958.889	619.167
961.781	918.62
964.674	1200.35
967.567	1711.93
970.459	2248.48
973.352	2788.25
976.245	3057.95
979.137	2732.25
982.03	2040.36
984.923	1445.38
987.816	1097.98
990.708	760.49
993.601	568.099
996.494	429.894
999.386	306.817
1002.28	286.371
1005.17	289.643
1008.06	399.555
1010.96	515.617
1013.85	775.169
1016.74	1096.26
1019.63	1409.04
1022.53	1562.25
1025.42	1342.19
1028.31	983.231
1031.21	704.506
1034.1	589.249
1036.99	553.526
1039.88	565.932
1042.78	570.235
1045.67	632.091
1048.56	537.835
1051.45	452.142
1054.35	318.154
1057.24	240.66
1060.13	127.067
1063.03	125.619
1065.92	56.0308
1068.81	48.6155
1071.7	24.7495
1074.6	9.05957
1077.49	6.29199
1080.38	25.0076
1083.28	43.2607
1086.17	21.7275
1089.06	7.15356
1091.95	1.24536
1094.85	6.60864
1097.74	46.356
1100.63	60.7463
1103.52	39.3145
1106.42	133.355
1109.31	97.761
1112.2	111.018
1115.09	159.406
1117.99	102.263
1120.88	58.05
1123.77	109.472
1126.66	110.907
1129.56	100.95
1132.45	106.95
1135.34	118.353
1138.24	117.146
1141.13	129.887
1144.02	123.953
1146.91	94.0618
1149.81	56.8643
1152.7	65.3679
1155.59	39.3159
1158.48	110.709
1161.38	52.7415
1164.27	83.4766
1167.16	64.9719
1170.06	54.4177
1172.95	91.1309
1175.84	70.5571
1178.73	58.5476
1181.63	37.485
1184.52	50.7634
1187.41	71.6828
1190.3	72.88
1193.2	61.5076
1196.09	20.8457
1198.98	1.21802
1201.88	25.5637
1204.77	38.8799
1207.66	30.6199
1210.55	19.1306
1213.45	25.8176
1216.34	44.1416
1219.23	42.0193
1222.12	46.8415
1225.02	74.0415
1227.91	87.5547
1230.8	109.843
1233.69	97.2478
1236.59	132.53
1239.48	137.205
1242.37	102.587
1245.27	111.747
1248.16	88.1753
1251.05	94.2056
1253.94	59.4959
1256.84	91.2976
1259.73	60.9358
1262.62	46.7594
1265.52	60.0993
1268.41	87.411
1271.3	6.16846
1274.19	32.9255
1277.09	12.4104
1279.98	37.779
1282.87	29.5508
