Measurement: Raman, 532 nm, unoriented, Raman Data Processed
Mineral: Vistepite
Rruff sample: R070712
Ideal chemistry: Mn_4_SnB_2_O_2_(Si_2_O_7_)_2_(OH)_2_
Locality: Rhodonite occurrence, Muzeinyi Valley, Inyl'chek Range, Issyk-Kul'skaya Oblast, Kyrgyzstan
Source: Michael Scott
Description: Yellow gemmy fragments associated with rhodonite. Portion of type sample.
Raman shift (cm-1)	intensity
152.429	0
155.322	74.6968
158.214	252.485
161.107	752.236
164	1252.81
166.893	756.299
169.785	583.389
172.678	646.769
175.571	547.535
178.463	218.277
181.356	23.4971
184.249	22.9106
187.142	14.4727
190.034	13.9678
192.927	44.1821
195.82	178.725
198.712	218.872
201.605	482.336
204.498	653.602
207.39	817.986
210.283	758.646
213.176	922.597
216.069	1094.19
218.961	1096.43
221.854	1114.14
224.747	921.535
227.639	716.664
230.532	701.021
233.425	616.971
236.317	488.651
239.21	439.87
242.103	503.99
244.995	692.701
247.888	789.95
250.781	672.673
253.674	492.953
256.566	282.564
259.459	152.599
262.352	71.3867
265.244	53.2715
268.137	217.299
271.03	235.039
273.923	263.896
276.815	256.094
279.708	331.319
282.601	327.798
285.493	338.513
288.386	159.772
291.279	54.8257
294.171	6.08691
297.064	34.5786
299.957	42.4795
302.849	4.18359
305.742	28.9385
308.635	82.9853
311.528	148.262
314.42	229.693
317.313	301.259
320.206	404.185
323.098	471.609
325.991	677.268
328.884	886.738
331.776	1072.11
334.669	1120.81
337.562	982.826
340.455	745.569
343.347	558.919
346.24	428.442
349.133	408.011
352.025	494.416
354.918	436.347
357.811	453.559
360.704	452.493
363.596	537.214
366.489	715.793
369.382	746.247
372.274	804.095
375.167	878.723
378.06	955.184
380.952	708.408
383.845	478.429
386.738	277.785
389.63	111.532
392.523	19.896
395.416	64.4394
398.308	8.17822
401.201	53.6309
404.094	8.98877
406.987	2.25684
409.879	26.8496
412.772	121.996
415.665	234.172
418.557	286.064
421.45	420.495
424.343	447.875
427.236	562.889
430.128	527.582
433.021	309.364
435.914	123.48
438.806	14.189
441.699	31.7969
444.592	1.63086
447.484	28.7881
450.377	23.7065
453.27	171.65
456.163	144.892
459.055	121.463
461.948	215.375
464.841	395.568
467.733	849.17
470.626	1705.41
473.519	2220.53
476.411	2295.24
479.304	2600.6
482.197	3541.23
485.089	5139.87
487.982	7086.44
490.875	7206.6
493.768	4848.63
496.66	2612.77
499.553	1488.49
502.446	849.388
505.338	659.287
508.231	605.919
511.124	694.299
514.016	1073.94
516.909	1729.15
519.802	2603.01
522.695	4241.75
525.587	6441.44
528.48	9108.1
531.373	10082.7
534.265	7438.47
537.158	4244.58
540.051	2198.01
542.943	1243.88
545.836	739.347
548.729	556.416
551.622	521.886
554.514	708.555
557.407	856.783
560.3	883.869
563.192	565.487
566.085	329.133
568.978	72.8169
571.87	44.6523
574.763	68.895
577.656	49.4126
580.549	45.1118
583.441	73.1025
586.334	297.658
589.227	651.758
592.119	1241.27
595.012	1840.44
597.905	1961.37
600.798	1415.92
603.69	842.5
606.583	641.24
609.476	454.806
612.368	469.024
615.261	537.455
618.154	501.109
621.046	618.571
623.939	867.032
626.832	742.898
629.725	470.873
632.617	257.555
635.51	2.90674
638.403	56.0674
641.295	86.3359
644.188	105.904
647.081	123.181
649.973	64.6138
652.866	50.3105
655.759	17.727
658.651	69.0293
661.544	15.9043
664.437	26.3442
667.33	44.626
670.222	63.2661
673.115	203.173
676.008	435.201
678.9	695.069
681.793	1190.43
684.686	1866.04
687.578	2788.33
690.471	3991.51
693.364	4508.9
696.256	3481.29
699.149	1978.5
702.042	1017.97
704.935	647.384
707.827	399.822
710.72	442.917
713.613	387.487
716.505	430.009
719.398	313.985
722.291	279.022
725.183	259.19
728.076	266.015
730.969	227.258
733.862	256.176
736.754	146.03
739.647	100.539
742.54	140.144
745.432	116.228
748.325	126.833
751.218	121.235
754.111	76.2485
757.003	91.71
759.896	4.53516
762.789	83.3462
765.681	89.9722
768.574	56.6836
771.467	34.3652
774.359	95.8852
777.252	4.52979
780.145	18.666
783.038	17.7925
785.93	19.9038
788.823	7.95996
791.716	14.021
794.608	23.2783
797.501	1.84424
800.394	46.5869
803.286	93.7178
806.179	40.3774
809.072	58.0322
811.965	63.9575
814.857	26.3091
817.75	48.9048
820.643	99.2324
823.535	146.571
826.428	237.724
829.321	231.661
832.213	274.991
835.106	261.365
837.999	312.906
840.891	156.917
843.784	184.862
846.677	111.215
849.57	159.255
852.462	110.209
855.355	101.362
858.248	30.7324
861.14	97.5649
864.033	40.6577
866.926	31.0732
869.818	41.7974
872.711	5.34424
875.604	30.0415
878.497	77.9336
881.389	81.1367
884.282	55.6211
887.175	45.1675
890.067	28.354
892.96	21.5293
895.853	92.6167
898.745	10.0581
901.638	10.2402
904.531	16.7876
907.424	33.898
910.316	48.5288
913.209	4.62891
916.102	12.3179
918.994	5.01953
921.887	102.058
924.78	52.0015
927.673	27.5752
930.565	1.4707
933.458	19.4302
936.351	57.9717
939.243	88.0454
942.136	76.0337
945.029	161.417
947.921	265.25
950.814	320.952
953.707	481.062
956.6	610.042
959.492	854.737
962.385	1237.14
965.278	1792.55
968.17	2532.64
971.063	3446.97
973.956	4196.09
976.848	4390.01
979.741	3656.49
982.634	2708.25
985.526	1998.58
988.419	1404.96
991.312	1087.34
994.205	874.05
997.097	702.31
999.99	608.831
1002.88	593.749
1005.77	673.886
1008.67	820.275
1011.56	1169.31
1014.45	1652.76
1017.35	2264.33
1020.24	2785.09
1023.13	2798.8
1026.02	2219.01
1028.92	1449.74
1031.81	1093.74
1034.7	851.514
1037.6	795.417
1040.49	867.688
1043.38	855.063
1046.27	732.505
1049.17	654.48
1052.06	509.873
1054.95	382.373
1057.84	288.955
1060.74	218.019
1063.63	141.415
1066.52	142.769
1069.41	4.54639
1072.31	10.9751
1075.2	16.5859
1078.09	54.9224
1080.98	27.5825
1083.88	11.9966
1086.77	22.0879
1089.66	29.8857
1092.56	9.44873
1095.45	87.4058
1098.34	120.335
1101.23	145.071
1104.13	255.14
1107.02	277.054
1109.91	268.693
1112.81	248.929
1115.7	222.129
1118.59	199.875
1121.48	195.747
1124.38	259.789
1127.27	187.951
1130.16	229.88
1133.05	311.709
1135.95	224.106
1138.84	204.79
1141.73	136.402
1144.62	154.219
1147.52	187.359
1150.41	122.457
1153.3	49.7812
1156.2	2.05908
1159.09	56.771
1161.98	21.668
1164.87	90.291
1167.77	64.9653
1170.66	40.2769
1173.55	55.103
1176.44	28.5186
1179.34	29.6743
1182.23	23.0034
1185.12	69.9771
1188.02	84.5503
1190.91	2.57959
1193.8	1.99902
1196.69	11.2715
1199.59	2.04102
1202.48	18.8408
1205.37	44.4131
1208.26	64.3486
1211.16	18.416
1214.05	44.7734
1216.94	91.1055
1219.84	51.4853
1222.73	100.133
1225.62	107.042
1228.51	65.8232
1231.41	11.1514
1234.3	18.415
1237.19	57.2598
1240.08	181.643
1242.98	29.3799
1245.87	86.6856
1248.76	54.7305
1251.65	90.2344
1254.55	25.6055
1257.44	174.552
1260.33	60.0742
1263.23	10.5039
1266.12	11.542
1269.01	38.5469
1271.9	54.0039
1274.8	55.1406
1277.69	39.2725
1280.58	12.7881
1283.47	34.3447
1286.37	1.27832
1289.26	51.5537
1292.15	33.4082
1295.05	28.6738
1297.94	0
