Measurement: Raman, 780 nm, unoriented, Raman Data Processed
Mineral: Vivianite
Rruff sample: R060025
Ideal chemistry: Fe^2+^_3_(PO_4_)_2_8H_2_O
Locality: Gypsy mine, Minas Gerais, Brazil
Source: Eric Van Valkenburg
Description: Blue-green fragment
Raman shift (cm-1)	intensity
105.541	0
108.916	1.81262
112.29	0.067581
115.665	0.152466
119.04	1.97604
122.415	7.29509
125.79	21.9671
129.165	36.5604
132.539	9.11543
135.914	2.64473
139.289	8.01337
142.664	20.4577
146.039	34.5688
149.413	35.8755
152.788	26.0506
156.163	26.5994
159.538	47.6426
162.913	73.3595
166.287	67.9343
169.662	39.1157
173.037	26.1285
176.412	25.8165
179.787	31.6201
183.162	42.7451
186.536	64.4806
189.911	95.4182
193.286	145.081
196.661	192.605
200.036	169.624
203.411	98.6075
206.785	51.4695
210.16	32.0944
213.535	28.2925
216.91	35.6883
220.285	52.8645
223.659	80.643
227.034	100.102
230.409	90.6917
233.784	78.9298
237.159	75.8408
240.533	61.2826
243.908	35.6559
247.283	17.2104
250.658	8.52632
254.033	2.94916
257.408	0.917984
260.782	0.360123
264.157	0.719421
267.532	0.895752
270.907	0.424454
274.282	1.82513
277.656	1.12134
281.031	0.268402
284.406	1.84285
287.781	1.62404
291.156	0.549179
294.531	0.917023
297.905	3.95189
301.28	7.68071
304.655	9.61954
308.03	8.94131
311.405	6.3878
314.779	5.62973
318.154	5.21172
321.529	5.53309
324.904	8.18318
328.279	11.2139
331.654	13.6841
335.028	16.6583
338.403	20.1609
341.778	23.5166
345.153	21.404
348.527	14.6182
351.902	9.31043
355.277	5.52774
358.652	3.05952
362.027	1.51328
365.402	0.738472
368.776	0.017044
372.151	0.469383
375.526	0.582809
378.901	0.129425
382.276	0.795372
385.651	0.691658
389.025	0.084885
392.4	0.035942
395.775	1.40801
399.15	0.654541
402.525	0.382202
405.899	1.1789
409.274	1.70467
412.649	2.49646
416.024	3.29732
419.399	3.57574
422.774	3.54915
426.148	5.52362
429.523	7.68028
432.898	10.469
436.273	15.3178
439.648	19.151
443.022	26.3539
446.397	35.2785
449.772	45.6405
453.147	55.1685
456.522	54.7031
459.897	43.8925
463.271	28.7101
466.646	15.6975
470.021	9.91423
473.396	5.18887
476.771	1.89406
480.145	0.638077
483.52	0.352676
486.895	0.708572
490.27	0.689087
493.645	0.284882
497.019	1.18002
500.394	2.07394
503.769	3.27624
507.144	4.76131
510.519	7.68414
513.894	9.89027
517.268	13.7614
520.643	16.4617
524.018	19.6283
527.393	22.3295
530.768	25.7248
534.142	28.5547
537.517	29.5224
540.892	29.8976
544.267	27.8538
547.642	25.3046
551.016	20.0632
554.391	17.9136
557.766	13.7794
561.141	11.6367
564.516	12.839
567.891	16.1818
571.265	18.822
574.64	12.2962
578.015	6.49033
581.39	3.76335
584.765	1.50919
588.139	1.11949
591.514	1.03818
594.889	0.435623
598.264	0.253021
601.639	1.72138
605.014	2.35564
608.388	3.02296
611.763	3.0625
615.138	2.78837
618.513	3.15109
621.888	3.11912
625.262	2.02537
628.637	2.19015
632.012	3.09633
635.387	1.89754
638.762	0.568985
642.136	0.787643
645.511	1.48264
648.886	0.046471
652.261	0.030746
655.636	0.52903
659.011	0.138412
662.385	0.732361
665.76	0.535965
669.135	0.725929
672.51	0.648788
675.885	1.20918
679.26	0.824196
682.634	0.552567
686.009	0.363281
689.384	1.41547
692.759	1.91355
696.134	0.422043
699.508	1.2398
702.883	1.46243
706.258	1.40482
709.633	1.66214
713.008	0.983727
716.382	0.353012
719.757	0.6577
723.132	0.817039
726.507	1.61182
729.882	1.79128
733.256	2.19022
736.631	2.47208
740.006	2.10766
743.381	2.51518
746.756	2.45879
750.131	2.56537
753.505	3.35858
756.88	3.11636
760.255	1.85259
763.63	1.364
767.005	1.05261
770.38	0.276718
773.754	0.989616
777.129	0.390114
780.504	0.428162
783.879	0.45092
787.254	0.375031
790.628	0.202797
794.003	0.979149
797.378	1.23022
800.753	0.768082
804.128	2.37357
807.502	3.44109
810.877	5.58231
814.252	6.67506
817.627	6.9295
821.002	8.69849
824.376	8.81975
827.751	10.4966
831.126	11.4717
834.501	11.9586
837.876	11.2321
841.251	10.1409
844.625	8.83639
848	6.72598
851.375	5.70184
854.75	4.89844
858.125	3.88343
861.5	3.64775
864.874	2.51267
868.249	1.9285
871.624	0.514771
874.999	0.430847
878.374	0.164375
881.748	0.21563
885.123	0.058235
888.498	0.654434
891.873	0.087532
895.248	0.836838
898.622	1.90571
901.997	3.54681
905.372	4.9162
908.747	6.6332
912.122	9.09511
915.496	13.2527
918.871	18.872
922.246	23.3622
925.621	35.0013
928.996	49.403
932.371	74.5869
935.745	111.116
939.12	160.675
942.495	231.757
945.87	333.629
949.245	423.226
952.62	357.638
955.994	200.254
959.369	103.304
962.744	56.0148
966.119	32.4835
969.494	20.3118
972.868	13.0908
976.243	9.3544
979.618	6.46393
982.993	5.49318
986.368	5.86655
989.742	5.24091
993.117	3.56188
996.492	2.33472
999.867	1.18583
1003.24	0.321938
1006.62	0.003151
1009.99	0.558456
1013.37	0.909142
1016.74	0.599365
1020.12	0.184395
1023.49	0.38192
1026.87	0.358566
1030.24	1.9117
1033.62	3.34566
1036.99	6.75773
1040.37	9.58994
1043.74	14.6348
1047.11	22.1372
1050.49	28.9226
1053.86	27.9053
1057.24	17.4932
1060.61	11.751
1063.99	7.72102
1067.36	4.61663
1070.74	2.44457
1074.11	3.03592
1077.49	1.1607
1080.86	1.19087
1084.24	1.7878
1087.61	0.650452
1090.99	0.646599
1094.36	0.994156
1097.74	1.42841
1101.11	0.77607
1104.49	0.131172
1107.86	0.487648
1111.24	0.718918
1114.61	0.125412
1117.98	0.287987
1121.36	0.534752
1124.73	0.750504
1128.11	0.167824
1131.48	0.329147
1134.86	0.247581
1138.23	0.678528
1141.61	0.941734
1144.98	2.15551
1148.36	0.826149
1151.73	1.03899
1155.11	0.956306
1158.48	0.99987
1161.86	0.682533
1165.23	1.1282
1168.61	1.65723
1171.98	0.997887
1175.36	0.53196
1178.73	0.591362
1182.11	0.850403
1185.48	1.50285
1188.86	0.841125
1192.23	0.814369
1195.61	1.53996
1198.98	0.489754
1202.36	0.764267
1205.73	0.82653
1209.11	0.330368
1212.48	0.487114
1215.86	1.20854
1219.23	1.06433
1222.61	0.10714
1225.98	0.195107
1229.35	0.644753
1232.73	0.833534
1236.1	0.477188
1239.48	0.525726
1242.85	0.763313
1246.23	0.460434
1249.6	0.483315
1252.98	0.005898
1256.35	0.856209
1259.73	1.42273
1263.1	0.406563
1266.48	0.858704
1269.85	1.51506
1273.23	0.469376
1276.6	0.688278
1279.98	1.19096
