Measurement: Raman, 532 nm, unoriented, Raman Data Processed
Mineral: Vivianite
Rruff sample: R050596
Ideal chemistry: Fe^2+^_3_(PO_4_)_2_8H_2_O
Locality: Chernomorskiy Quarry, near Kertch City, Crimea Peninsula, Ukraine
Source: Barb Dutrow
Description: Group of dark blue elongated prismatic single crystals in a fossilized clam shell
Measured chemistry: (Fe^2+^_2.89_Mg_0.08_Mn_0.03_)_Σ=3_(P_1.00_O_4_)_2_·8H_2_O
Raman shift (cm-1)	intensity
140.291	0
143.666	1.07269
147.041	20.4004
150.416	29.0891
153.791	18.2465
157.165	8.37581
160.54	21.9195
163.915	52.1251
167.29	45.701
170.665	10.2818
174.039	5.83623
177.414	30.5915
180.789	83.6184
184.164	174.256
187.539	275.261
190.913	358.972
194.288	439.882
197.663	516.765
201.038	465.68
204.413	285.479
207.788	151.106
211.162	103.663
214.537	105.507
217.912	144.181
221.287	207.224
224.662	292.419
228.037	358.368
231.411	367.748
234.786	373.852
238.161	400.295
241.536	355.547
244.911	225.661
248.286	122.008
251.66	65.0824
255.035	43.4957
258.41	36.8528
261.785	38.3154
265.16	49.5472
268.534	62.6007
271.909	75.0112
275.284	78.5559
278.659	65.3625
282.034	37.4906
285.409	9.30148
288.783	5.71825
292.158	10.0189
295.533	6.66665
298.908	6.39991
302.283	25.8343
305.657	44.0045
309.032	43.0562
312.407	29.339
315.782	17.7385
319.157	11.0576
322.532	7.79925
325.906	8.02876
329.281	10.4543
332.656	16.2799
336.031	20.9045
339.406	26.9349
342.781	30.889
346.155	30.6984
349.53	21.859
352.905	10.5714
356.28	3.73412
359.655	0.741173
363.029	0.908791
366.404	0.78389
369.779	0.739883
373.154	0.38958
376.529	1.86915
379.904	2.5439
383.278	2.75855
386.653	2.23723
390.028	1.44321
393.403	0.705528
396.778	0.141426
400.152	0.09639
403.527	0.721771
406.902	0.379089
410.277	0.820984
413.652	2.75267
417.027	4.13225
420.401	3.74578
423.776	5.36512
427.151	6.70183
430.526	11.5348
433.901	22.3848
437.276	39.8689
440.65	66.5854
444.025	102.078
447.4	147.427
450.775	194.301
454.15	229.821
457.524	227.401
460.899	176.188
464.274	111.766
467.649	60.2752
471.024	28.835
474.399	11.4607
477.773	2.63727
481.148	2.99536
484.523	2.85573
487.898	1.10063
491.273	7.30168
494.647	17.2959
498.022	29.8727
501.397	45.8859
504.772	65.0212
508.147	87.5885
511.522	113.063
514.896	142.08
518.271	171.923
521.646	203.125
525.021	230.957
528.396	255.578
531.77	274.187
535.145	288.698
538.52	294.495
541.895	286.005
545.27	263.542
548.645	230.654
552.019	192.926
555.394	163.381
558.769	149.335
562.144	147.087
565.519	164.581
568.894	189.979
572.268	182.126
575.643	123.831
579.018	66.7673
582.393	32.4602
585.768	14.5175
589.143	4.65018
592.517	0.534172
595.892	2.8971
599.267	3.15209
602.642	0.453163
606.016	2.6424
609.391	5.06528
612.766	8.49126
616.141	9.19797
619.516	11.7467
622.891	10.8494
626.265	10.56
629.64	9.2391
633.015	7.24566
636.39	4.94511
639.765	5.06308
643.14	4.70996
646.514	3.88521
649.889	2.99948
653.264	2.53011
656.639	0.666626
660.014	0.221397
663.389	0.605331
666.763	0.888618
670.138	1.24572
673.513	2.04162
676.888	3.11923
680.263	4.38813
683.638	5.42896
687.012	6.58211
690.387	5.92849
693.762	6.3906
697.137	7.29664
700.511	5.46361
703.886	4.40927
707.261	4.34592
710.636	4.01184
714.011	3.08203
717.386	1.26212
720.76	0.925827
724.135	0.313873
727.51	0.189369
730.885	1.49764
734.26	2.04429
737.635	2.58955
741.009	2.79938
744.384	4.31673
747.759	6.20539
751.134	6.03001
754.509	7.52617
757.884	7.31949
761.258	7.29765
764.633	7.16916
768.008	6.95256
771.383	5.42355
774.758	4.5354
778.132	3.68144
781.507	2.27611
784.882	0.966316
788.257	0.454323
791.632	0.367546
795.006	0.19857
798.381	0.346031
801.756	1.51594
805.131	1.97915
808.506	4.52511
811.881	8.23337
815.255	9.71191
818.63	12.636
822.005	17.9652
825.38	21.4497
828.755	24.2982
832.13	25.7132
835.504	25.2828
838.879	24.3806
842.254	22.7354
845.629	20.4997
849.004	17.2259
852.379	14.4626
855.753	10.817
859.128	8.43219
862.503	6.61745
865.878	4.53214
869.253	2.14788
872.627	1.35549
876.002	1.08578
879.377	0.605156
882.752	1.04349
886.127	1.20762
889.501	0.816963
892.876	1.01924
896.251	1.35545
899.626	4.40464
903.001	8.41957
906.376	12.4779
909.75	17.5908
913.125	25.845
916.5	36.6462
919.875	50.951
923.25	74.5384
926.625	107.088
929.999	160.491
933.374	243.284
936.749	390.26
940.124	649.46
943.499	1029.9
946.874	1518.62
950.248	1843.06
953.623	1508.67
956.998	886.204
960.373	480.704
963.748	265.817
967.122	158.425
970.497	96.5421
973.872	58.658
977.247	38.3522
980.622	29.9858
983.996	26.2031
987.371	28.2
990.746	26.5226
994.121	22.4671
997.496	16.0482
1000.87	9.04672
1004.25	1.81296
1007.62	0.355484
1011	2.48807
1014.37	1.49577
1017.75	0.016251
1021.12	2.77457
1024.49	7.40408
1027.87	18.4594
1031.24	32.5532
1034.62	56.7995
1037.99	98.467
1041.37	165.889
1044.74	266.964
1048.12	393.063
1051.49	499.592
1054.87	470.224
1058.24	309.811
1061.62	172.146
1064.99	95.7585
1068.37	54.5325
1071.74	32.6188
1075.12	19.62
1078.49	12.9499
1081.87	7.11933
1085.24	5.02963
1088.62	3.14679
1091.99	1.66834
1095.37	0.870758
1098.74	0.824951
1102.12	0.768951
1105.49	0.278519
1108.87	1.10011
1112.24	1.65333
1115.62	0.460037
1118.99	0.722885
1122.36	0.82682
1125.74	1.26683
1129.11	3.13985
1132.49	3.27408
1135.86	4.3765
1139.24	5.69112
1142.61	6.6808
1145.99	7.61724
1149.36	9.18597
1152.74	8.30484
1156.11	9.16151
1159.49	9.37002
1162.86	10.1143
1166.24	9.86997
1169.61	8.80981
1172.99	7.27573
1176.36	7.08355
1179.74	7.80095
1183.11	5.69907
1186.49	5.01714
1189.86	4.51252
1193.23	4.59711
1196.61	3.45725
1199.98	2.91761
1203.36	3.3591
1206.73	4.1861
1210.11	2.93079
1213.48	2.7512
1216.86	2.50355
1220.23	2.15098
1223.61	2.00141
1226.98	2.56062
1230.36	2.41789
1233.73	1.01939
1237.11	2.44843
1240.48	1.73545
1243.86	1.1318
1247.23	2.26195
1250.61	1.45823
1253.98	1.33707
1257.36	1.36011
1260.73	0.401154
1264.11	1.2349
1267.48	1.82123
1270.86	1.30337
1274.23	0.413574
1277.61	1.32622
1280.98	1.22048
1284.36	1.52026
1287.73	0.37484
1291.11	0.675697
1294.48	0.050751
1297.86	0.869148
1301.23	1.22787
