Measurement: Raman, 532 nm, unoriented, Raman Data Processed
Mineral: Vivianite
Rruff sample: R040185
Ideal chemistry: Fe^2+^_3_(PO_4_)_2_8H_2_O
Locality: Siglo XX mine, Llallagua, Bustillos, Potosi, Bolivia
Source: University of Arizona Mineral Museum
Description: Green acicular single crystal
Measured chemistry: (Fe_1.00_Mn_0.01_)_3_(P_0.97_Si_0.03_O_3.94_F_0.07_)_2_Â·8H_2_O
Raman shift (cm-1)	intensity
114.949	0
118.324	17.2252
121.699	20.3846
125.074	5.58572
128.449	35.1845
131.823	59.6959
135.198	20.3331
138.573	63.423
141.948	119.908
145.323	190.084
148.698	242.047
152.072	203.673
155.447	197.76
158.822	287.34
162.197	474.794
165.572	558.226
168.946	352.984
172.321	197.17
175.696	195.241
179.071	306.136
182.446	562.458
185.821	953.335
189.195	1342.12
192.57	1680.87
195.945	2247.63
199.32	2373.45
202.695	1505.79
206.07	708.422
209.444	351.492
212.819	286.318
216.194	394.673
219.569	638.941
222.944	1031.43
226.318	1532.43
229.693	1648.4
233.068	1487.7
236.443	1434.56
239.818	1408.64
243.192	906.249
246.567	424.59
249.942	202.605
253.317	97.389
256.692	48.8309
260.067	79.7299
263.441	93.8641
266.816	140.498
270.191	227.392
273.566	256.487
276.941	225.969
280.315	121.785
283.69	24.5765
287.065	32.9117
290.44	49.9199
293.815	27.0028
297.19	20.5303
300.564	117.633
303.939	205.606
307.314	216.408
310.689	143.469
314.064	94.5825
317.438	42.105
320.813	44.3416
324.188	41.2262
327.563	56.1129
330.938	91.9727
334.313	131.803
337.687	177.072
341.062	234.68
344.437	247.78
347.812	206.633
351.187	131.724
354.562	50.6488
357.936	32.3268
361.311	17.3674
364.686	2.84714
368.061	3.93601
371.436	0.757568
374.81	3.18405
378.185	7.63843
381.56	5.15619
384.935	0.20639
388.31	0.646667
391.685	5.48599
395.059	14.8147
398.434	26.6842
401.809	1.49905
405.184	26.5493
408.559	20.8756
411.933	31.1757
415.308	50.1031
418.683	47.8817
422.058	42.0106
425.433	69.1891
428.808	88.4162
432.182	113.954
435.557	182.145
438.932	271.43
442.307	417.867
445.682	628.929
449.056	864.462
452.431	1111.12
455.806	1158.67
459.181	960.064
462.556	610.325
465.93	352.46
469.305	173.102
472.68	79.971
476.055	19.3772
479.43	15.8574
482.805	1.65802
486.179	10.1185
489.554	3.59729
492.929	43.6317
496.304	81.7519
499.679	123.638
503.053	221.218
506.428	315.343
509.803	420.304
513.178	519.233
516.553	663.752
519.928	799.602
523.302	940.832
526.677	1018.07
530.052	1137.83
533.427	1167.43
536.802	1199.79
540.177	1141.86
543.551	1127.11
546.926	1032.06
550.301	846.907
553.676	716.232
557.051	646.109
560.425	630.385
563.8	727.42
567.175	870.136
570.55	876.049
573.925	631.518
577.299	343.192
580.674	170.737
584.049	82.3276
587.424	37.5515
590.799	11.5794
594.174	8.72989
597.548	10.6543
600.923	4.49405
604.298	20.008
607.673	26.1029
611.048	57.4982
614.423	70.1941
617.797	71.9922
621.172	83.0706
624.547	75.882
627.922	68.3185
631.297	52.2598
634.671	38.3174
638.046	23.1287
641.421	14.1031
644.796	16.3631
648.171	21.7914
651.545	5.29336
654.92	0.58313
658.295	5.7439
661.67	1.01434
665.045	2.02051
668.42	17.4236
671.794	27.2433
675.169	18.6857
678.544	27.1642
681.919	27.8839
685.294	28.893
688.668	48.0182
692.043	51.2496
695.418	34.1987
698.793	33.0055
702.168	29.5667
705.543	28.9781
708.917	31.7169
712.292	21.8583
715.667	11.6712
719.042	11.0423
722.417	13.1702
725.792	9.53863
729.166	1.08917
732.541	8.19543
735.916	25.8945
739.291	35.3054
742.666	47.4645
746.04	34.5699
749.415	34.5478
752.79	59.1221
756.165	64.4825
759.54	55.8163
762.915	40.2683
766.289	50.0736
769.664	44.4034
773.039	28.6632
776.414	27.2327
779.789	0.009949
783.163	3.24982
786.538	2.19623
789.913	13.0276
793.288	3.26117
796.663	9.91589
800.038	22.8157
803.412	18.8197
806.787	61.5917
810.162	57.9677
813.537	89.7249
816.912	121.777
820.286	144.519
823.661	182.165
827.036	204.427
830.411	207.75
833.786	221.917
837.16	238.589
840.535	209.502
843.91	203.642
847.285	159.79
850.66	131.279
854.035	82.42
857.409	75.8917
860.784	42.7186
864.159	38.23
867.534	13.8935
870.909	7.14081
874.284	6.41766
877.658	16.8361
881.033	13.266
884.408	4.10565
887.783	3.4472
891.158	22.6898
894.533	13.95
897.907	36.3561
901.282	72.2645
904.657	94.532
908.032	129.208
911.407	187.44
914.781	228.878
918.156	346.56
921.531	455.805
924.906	684.017
928.281	974.823
931.655	1414.15
935.03	2218.17
938.405	3688.95
941.78	6067.84
945.155	9311.22
948.529	11796
951.904	10067.1
955.279	5729.38
958.654	2968.5
962.029	1590.05
965.404	911.076
968.778	535.309
972.153	307.823
975.528	200.345
978.903	132.194
982.278	106.982
985.653	128.337
989.027	137.39
992.402	105.435
995.777	74.1632
999.152	44.2297
1002.53	25.4369
1005.9	1.61249
1009.28	13.1843
1012.65	18.7108
1016.03	11.0222
1019.4	3.07849
1022.78	22.4463
1026.15	83.2178
1029.53	134.995
1032.9	245.038
1036.28	414.825
1039.65	726.911
1043.02	1207.43
1046.4	1905.88
1049.77	2574.97
1053.15	2617.14
1056.52	1812.83
1059.9	1037.01
1063.27	546.262
1066.65	323.796
1070.02	196.113
1073.4	112.618
1076.77	63.8258
1080.15	44.3097
1083.52	36.6053
1086.9	15.1145
1090.27	9.91345
1093.65	6.18961
1097.02	6.87326
1100.4	10.4737
1103.77	14.3445
1107.15	3.9715
1110.52	15.6716
1113.9	3.91644
1117.27	4.935
1120.64	4.00006
1124.02	5.04336
1127.39	25.2871
1130.77	28.3141
1134.14	27.2792
1137.52	41.0744
1140.89	38.4529
1144.27	50.3298
1147.64	43.7505
1151.02	61.401
1154.39	34.2647
1157.77	49.1028
1161.14	53.0398
1164.52	36.8165
1167.89	50.99
1171.27	36.0938
1174.64	32.6089
1178.02	28.0216
1181.39	30.2728
1184.77	27.7
1188.14	32.7912
1191.52	28.918
1194.89	24.7462
1198.27	20.0827
1201.64	20.6304
1205.02	4.01917
1208.39	15.633
1211.77	11.2068
1215.14	9.47199
1218.52	21.9263
1221.89	23.153
1225.27	9.19186
1228.64	14.076
1232.01	4.93256
1235.39	10.1251
1238.76	9.01932
1242.14	10.6859
1245.51	20.0485
1248.89	15.0974
1252.26	14.4707
1255.64	6.23377
1259.01	13.6436
1262.39	20.3256
1265.76	20.1721
1269.14	18.1836
1272.51	1.33737
1275.89	14.1074
1279.26	6.33963
1282.64	2.10083
1286.01	5.49731
1289.39	13.9276
1292.76	13.3375
1296.14	8.2128
1299.51	23.0365
1302.88	6.90051
1306.26	0
