Measurement: Raman, 785 nm, unoriented, Raman Data Processed
Mineral: Vivianite
Rruff sample: R070331
Ideal chemistry: Fe^2+^_3_(PO_4_)_2_8H_2_O
Locality: Big Fish River, Yukon Territory, Canada
Source: Mark Mauthner
Description: Platy, indigo-blue massive, associated with maricite
Measured chemistry: (Fe^2+^_1.77_Mg_1.21_Mn_0.02_)_Σ=3_(P_1.00_O_4_)_2_·8H_2_O;  (dark phase, H_2_O is estimated by difference) : Na_1.00_Fe^2+^_1.00_P_1.00_O_4_ (light phase = maricite, with trace amounts of Mn)
Raman shift (cm-1)	intensity
164.41	0
167.303	21.4688
170.195	88.0869
173.088	88.0947
175.981	59.3101
178.873	12.4641
181.766	41.4211
184.659	136.741
187.552	267.028
190.444	371.031
193.337	613.387
196.23	831.54
199.122	1003.19
202.015	951.083
204.908	871.185
207.8	718.003
210.693	526.936
213.586	397.947
216.478	327.603
219.371	237.807
222.264	148.671
225.157	33.1072
228.049	29.364
230.942	11.4944
233.835	22.7021
236.727	6.78247
239.62	103.692
242.513	216.101
245.405	265.566
248.298	278.934
251.191	340.016
254.084	414.037
256.976	376.031
259.869	411.964
262.762	416.694
265.654	475.022
268.547	497.625
271.44	640.44
274.332	676.926
277.225	697.2
280.118	777.669
283.011	751.681
285.903	713.389
288.796	716.635
291.689	638.564
294.581	559.926
297.474	528.977
300.367	475.56
303.26	442.241
306.152	449.594
309.045	440.375
311.938	429.455
314.83	368.589
317.723	319.522
320.616	280.128
323.508	218.873
326.401	244.952
329.294	204.034
332.187	237.633
335.079	216.062
337.972	258.826
340.865	240.459
343.757	240.842
346.65	211.731
349.543	147.061
352.435	119.97
355.328	83.8733
358.221	32.5178
361.113	26.2107
364.006	44.8967
366.899	1.73584
369.792	10.2039
372.684	28.7123
375.577	2.14185
378.47	19.7003
381.362	8.67798
384.255	22.7305
387.148	22.293
390.041	28.4352
392.933	30.821
395.826	31.2094
398.719	25.6681
401.611	60.0089
404.504	55.154
407.397	127.724
410.289	143.94
413.182	191.974
416.075	231.989
418.967	301.42
421.86	320.617
424.753	342.51
427.646	367.739
430.538	303.022
433.431	277.523
436.324	231.772
439.216	254.557
442.109	259.907
445.002	274.569
447.894	349.678
450.787	380.578
453.68	440.562
456.573	537.052
459.465	533.903
462.358	556.902
465.251	542.892
468.143	497.742
471.036	428.029
473.929	310.732
476.822	192.631
479.714	146.071
482.607	95.2434
485.5	36.7622
488.392	17.1851
491.285	16.8066
494.178	6.60864
497.07	14.6296
499.963	35.3015
502.856	14.2903
505.748	75.7949
508.641	133.291
511.534	227.541
514.427	247.226
517.319	291.987
520.212	374.146
523.105	446.523
525.997	467.042
528.89	514.565
531.783	633.614
534.676	591.932
537.568	634.983
540.461	593.537
543.354	560.079
546.246	460.118
549.139	418.171
552.032	279.429
554.924	265.053
557.817	174.47
560.71	165.767
563.602	127.071
566.495	191.046
569.388	190.505
572.281	274.658
575.173	328.137
578.066	323.05
580.959	288.753
583.851	259.368
586.744	207.877
589.637	185.277
592.529	174.741
595.422	147.55
598.315	114.477
601.208	96.8325
604.1	49.2473
606.993	51.4403
609.886	35.7126
612.778	41.538
615.671	12.6313
618.564	26.9061
621.457	31.3663
624.349	20.2228
627.242	17.3739
630.135	8.802
633.027	5.88037
635.92	33.8687
638.813	1.40857
641.705	29.4385
644.598	3.0221
647.491	13.7181
650.384	5.51257
653.276	31.762
656.169	9.62427
659.062	17.2803
661.954	29.9375
664.847	32.5582
667.74	34.2116
670.632	41.713
673.525	53.2731
676.418	55.6952
679.311	18.5774
682.203	50.3668
685.096	10.6051
687.989	32.3518
690.881	35.3616
693.774	12.747
696.667	63.6066
699.559	55.9381
702.452	71.2632
705.345	55.511
708.237	18.4822
711.13	42.2153
714.023	67.7855
716.916	68.2675
719.808	55.3562
722.701	53.3938
725.594	67.8254
728.486	66.0958
731.379	42.5061
734.272	21.8348
737.164	34.868
740.057	22.4237
742.95	40.3682
745.843	81.5343
748.735	33.2307
751.628	43.9691
754.521	2.03394
757.413	2.86731
760.306	47.5093
763.199	21.9635
766.091	13.4432
768.984	11.656
771.877	35.4083
774.77	14.088
777.662	34.5176
780.555	13.2817
783.448	31.3536
786.34	37.87
789.233	39.9641
792.126	27.1301
795.019	14.7593
797.911	34.0346
800.804	42.6783
803.697	39.4872
806.589	27.1771
809.482	12.9258
812.375	15.3249
815.267	12.5531
818.16	22.1652
821.053	59.1189
823.946	21.3506
826.838	10.2628
829.731	53.822
832.624	0.396973
835.516	67.3187
838.409	34.1733
841.302	44.1091
844.194	73.916
847.087	44.3634
849.98	66.3015
852.872	73.3178
855.765	71.8915
858.658	59.032
861.551	119.547
864.443	40.7739
867.336	90.9128
870.229	99.6533
873.121	59.7891
876.014	53.0546
878.907	38.8136
881.799	59.4786
884.692	41.1107
887.585	10.0276
890.478	3.70227
893.37	16.0068
896.263	6.65039
899.156	10.6459
902.048	4.9917
904.941	31.1038
907.834	4.58643
910.726	28.2498
913.619	11.8053
916.512	10.4634
919.405	17.1791
922.297	21.4383
925.19	43.3135
928.083	93.0348
930.975	193.207
933.868	236.087
936.761	362.376
939.654	542.159
942.546	840.81
945.439	1211.43
948.332	1569.26
951.224	1831.58
954.117	1776.36
957.01	1423.13
959.902	974.337
962.795	608.095
965.688	317.657
968.581	194.571
971.473	90.89
974.366	50.1781
977.259	24.3533
980.151	55.5022
983.044	56.9845
985.937	47.756
988.829	80.6877
991.722	121.225
994.615	192.683
997.508	224.395
1000.4	290.862
1003.29	455.872
1006.19	590.5
1009.08	745.442
1011.97	920.695
1014.86	976.124
1017.76	946.084
1020.65	855.116
1023.54	654.266
1026.43	475.183
1029.33	375.124
1032.22	284.401
1035.11	237.927
1038.01	160.251
1040.9	214.166
1043.79	245.449
1046.68	291.721
1049.58	339.811
1052.47	425.94
1055.36	469.425
1058.25	463.314
1061.15	352.489
1064.04	273.477
1066.93	210.338
1069.83	209.003
1072.72	180.835
1075.61	186.084
1078.5	226.457
1081.4	193.969
1084.29	164.096
1087.18	166.694
1090.07	107.323
1092.97	49.4686
1095.86	21.5543
1098.75	18.7308
1101.64	2.57165
1104.54	3.5647
1107.43	8.31982
1110.32	34.2706
1113.21	3.60706
1116.11	0.052734
1119	17.7508
1121.89	11.9399
1124.79	33.5042
1127.68	27.6867
1130.57	46.4664
1133.46	12.1688
1136.36	54.8984
1139.25	50.2726
1142.14	54.7893
1145.04	61.9949
1147.93	73.3038
1150.82	89.4778
1153.71	93.9758
1156.61	122.06
1159.5	114.806
1162.39	98.3144
1165.28	63.66
1168.18	80.8383
1171.07	56.9047
1173.96	38.1934
1176.86	56.8386
1179.75	77.3505
1182.64	40.578
1185.53	50.8446
1188.43	62.4113
1191.32	29.1171
1194.21	49.8275
1197.1	35.1803
1200	38.6565
1202.89	19.6145
1205.78	47.6217
1208.67	24.0591
1211.57	17.0366
1214.46	18.1095
1217.35	40.386
1220.24	72.0996
1223.14	30.8424
1226.03	18.1669
1228.92	8.62451
1231.82	10.5233
1234.71	63.4451
1237.6	12.8324
1240.49	10.843
