Measurement: Raman, 514 nm, unoriented, Raman Data Processed
Mineral: Vivianite
Rruff sample: R050076
Ideal chemistry: Fe^2+^_3_(PO_4_)_2_8H_2_O
Locality: near Canutillos mine, Potosi, Saavedra, Bolivia
Source: Rock Currier
Description: Green prismatic and elongated single crystal
Measured chemistry: (Fe^2+^_0.99_Mn_0.01_)_3_(P_1.00_O_4_)_2_Â·8H_2_O
Raman shift (cm-1)	intensity
96.161	0
100.34	47.423
104.516	16.269
108.691	43.908
112.864	136.401
117.034	545.367
121.203	818.374
125.369	1325.03
129.534	2089.82
133.696	2098.87
137.857	3493.04
142.016	5276.61
146.172	4390.19
150.327	2695.04
154.48	1902.52
158.63	1936.48
162.779	3656.35
166.926	2901.65
171.07	1671.28
175.213	1171.59
179.354	1034.75
183.493	1383.5
187.63	2386.81
191.765	4129.12
195.898	7050.22
200.029	7913.95
204.158	4164.03
208.285	1901.63
212.41	1127.45
216.533	1101.37
220.654	1929.66
224.773	3235.17
228.891	4174.14
233.006	3669.83
237.119	3290.28
241.231	3030.06
245.34	1844.1
249.448	1057.61
253.553	699.719
257.657	354.277
261.758	439.094
265.858	414.189
269.956	327.41
274.052	457.38
278.146	560.207
282.237	467.424
286.327	71.721
290.416	3.123
294.502	227.725
298.586	126.134
302.668	191.006
306.749	379.254
310.827	232.813
314.903	59.535
318.978	14.444
323.051	57.208
327.121	128.955
331.19	172.978
335.257	378.193
339.322	514.429
343.385	831.852
347.446	695.246
351.505	511.713
355.563	217.209
359.618	10.729
363.672	88.829
367.723	200.58
371.773	151.672
375.821	121.85
379.866	102.674
383.91	73.817
387.952	124.156
391.992	83.514
396.031	134.486
400.067	83.773
404.101	325.674
408.134	213.373
412.165	133.891
416.193	111.297
420.22	165.514
424.245	116.51
428.268	393.148
432.289	260.17
436.309	547.938
440.326	722.301
444.342	1106.15
448.355	1707.91
452.367	2170.5
456.377	2576.1
460.385	1934.49
464.391	1120.79
468.395	543.934
472.398	116.936
476.398	18.76
480.397	96.252
484.394	21.488
488.389	37.873
492.382	78.396
496.373	214.146
500.362	211.105
504.349	390.598
508.335	499.498
512.319	724.594
516.3	918.807
520.28	885.58
524.259	1108.93
528.235	1351.46
532.209	1317.41
536.182	1490.59
540.152	1556
544.121	1247.4
548.088	1295.51
552.053	1090.72
556.017	828.016
559.978	681.916
563.938	632.24
567.895	844.648
571.851	1154.03
575.805	790.824
579.758	298.574
583.708	444.342
587.657	317.832
591.603	260.127
595.548	100.504
599.491	206.123
603.432	160.842
607.372	292.352
611.309	325.721
615.245	525.928
619.179	529.238
623.111	778.035
627.041	451.736
630.97	526.73
634.896	768.686
638.821	640.988
642.744	604.805
646.665	377.137
650.584	459.781
654.502	220.041
658.418	139.752
662.331	90.135
666.244	135.59
670.154	118.297
674.062	252.025
677.969	219.582
681.874	54.082
685.777	182.697
689.678	238.516
693.577	449.438
697.475	59.865
701.371	185.051
705.265	171.119
709.157	42.021
713.047	378.715
716.936	166.643
720.823	250.67
724.708	179.035
728.591	96.566
732.472	149.713
736.352	165.934
740.23	78.277
744.106	108.945
747.98	100.27
751.853	344.43
755.723	195.783
759.592	37.82
763.459	350.58
767.325	325.02
771.188	258.502
775.05	88.029
778.91	221.381
782.768	75.844
786.625	346.301
790.479	90.834
794.332	9.5
798.183	341.316
802.033	255.281
805.88	58.434
809.726	468.373
813.57	512.15
817.413	761.029
821.253	784.67
825.092	971.098
828.929	1308.68
832.764	1096.58
836.598	1160.56
840.429	1116.87
844.259	1109.35
848.088	1343.8
851.914	994.982
855.739	1099.21
859.562	872.662
863.383	599.088
867.203	762.789
871.02	606.168
874.836	859.332
878.65	733.764
882.463	534.791
886.274	610.66
890.083	828.162
893.89	700.625
897.695	763.053
901.499	849.643
905.301	699.404
909.102	1071.35
912.9	1419.5
916.697	1504.75
920.492	1823.13
924.285	2193.64
928.077	2918.08
931.867	3753.86
935.655	5425.76
939.442	7873.06
943.226	13935.2
947.009	26059.3
950.791	32504.9
954.57	20510.3
958.348	10032
962.124	5097.82
965.899	2685.52
969.671	1641.31
973.442	1379.52
977.211	1157.81
980.979	1034.12
984.745	533.299
988.509	795.467
992.271	802.314
996.032	956.625
999.791	157.711
1003.55	489.451
1007.3	467.014
1011.06	377.424
1014.81	257.65
1018.56	373.508
1022.31	636.754
1026.06	249.105
1029.8	798.674
1033.55	523.652
1037.29	865.746
1041.03	1014.68
1044.77	1615.76
1048.5	2467.33
1052.24	3922.66
1055.97	3074.36
1059.7	2054.55
1063.43	1097.13
1067.16	679.453
1070.89	590.363
1074.61	485.586
1078.34	341.406
1082.06	623.078
1085.78	1484.64
1089.5	794.016
1093.21	84.926
1096.93	117.855
1100.64	187.695
1104.35	30.164
1108.06	322.969
1111.77	68.547
1115.48	66.082
1119.18	7.535
1122.89	86.363
1126.59	39.965
1130.29	109.77
1133.99	56.074
1137.68	130.328
1141.38	54.438
1145.07	130.656
1148.76	106.457
1152.45	88.008
1156.14	318.094
1159.83	41.727
1163.51	231.91
1167.19	54.801
1170.88	479.477
1174.56	110.328
1178.23	5.105
1181.91	106.422
1185.59	130.449
1189.26	392.938
1192.93	523.164
1196.6	166.773
1200.27	716.465
1203.94	8.715
1207.6	589.957
1211.27	561.047
1214.93	277.535
1218.59	571.766
1222.25	442.531
1225.9	404.711
1229.56	620.559
1233.21	361.145
1236.86	289.539
1240.51	542.82
1244.16	265.605
1247.81	663.805
1251.45	307.211
1255.1	156.918
1258.74	473.445
1262.38	190.535
1266.02	277.152
1269.66	263.215
1273.29	251.488
1276.93	206.691
1280.56	110.23
1284.19	162.828
1287.82	186.738
1291.45	448.539
1295.07	159.637
1298.7	159.199
1302.32	277.742
1305.94	125.941
1309.56	1.691
1313.18	247.117
1316.8	212.602
1320.41	366.125
1324.02	362.465
1327.63	326.195
1331.24	440.055
1334.85	174.453
1338.46	286.766
1342.06	512.727
1345.67	451.859
1349.27	679.598
1352.87	560.031
1356.47	218.094
1360.07	384.469
1363.66	395.074
1367.25	532.672
1370.85	201.316
1374.44	404.848
1378.03	359.102
1381.61	84.84
1385.2	365.977
1388.78	488.426
1392.37	62.93
1395.95	1.559
1399.53	196.16
1403.1	39.219
