Measurement: Raman, 785 nm, unoriented, Raman Data Processed
Mineral: Vivianite
Rruff sample: R040185
Ideal chemistry: Fe^2+^_3_(PO_4_)_2_8H_2_O
Locality: Siglo XX mine, Llallagua, Bustillos, Potosi, Bolivia
Source: University of Arizona Mineral Museum
Description: Green acicular single crystal
Measured chemistry: (Fe_1.00_Mn_0.01_)_3_(P_0.97_Si_0.03_O_3.94_F_0.07_)_2_Â·8H_2_O
Raman shift (cm-1)	intensity
126.323	0
129.215	2.11207
132.108	13.3544
135.001	9.80199
137.893	14.0683
140.786	7.01541
143.679	20.1365
146.572	63.6061
149.464	128.248
152.357	156.833
155.25	129.465
158.142	126.371
161.035	181.271
163.928	284.501
166.821	273.228
169.713	196.547
172.606	129.119
175.499	105.202
178.391	127.762
181.284	174.65
184.177	273.862
187.069	405.961
189.962	547.697
192.855	752.618
195.748	1003.96
198.64	1208.81
201.533	985.709
204.426	558.661
207.318	318.671
210.211	194.972
213.104	163.059
215.996	190.762
218.889	246.01
221.782	351.685
224.674	516.279
227.567	639.742
230.46	653.443
233.353	589.83
236.245	579.019
239.138	609.674
242.031	476.303
244.923	285.748
247.816	154.234
250.709	75.7425
253.601	38.1299
256.494	30.2956
259.387	3.86754
262.28	6.52965
265.172	12.6487
268.065	18.1662
270.958	28.2752
273.85	33.5138
276.743	36.5496
279.636	22.5189
282.529	4.05791
285.421	11.2367
288.314	15.1565
291.207	9.5484
294.099	0.709412
296.992	8.83922
299.885	27.313
302.777	35.0451
305.67	49.3589
308.563	54.9589
311.455	32.6948
314.348	23.6665
317.241	19.35
320.134	18.0201
323.026	23.0517
325.919	34.2897
328.812	44.7751
331.704	69.3811
334.597	81.2172
337.49	104.382
340.382	128.877
343.275	143.518
346.168	121.961
349.061	93.7944
351.953	53.6797
354.846	33.1538
357.739	19.9504
360.631	16.408
363.524	0.287872
366.417	5.57752
369.31	0.969025
372.202	1.76241
375.095	0.291931
377.988	1.29629
380.88	1.81011
383.773	3.33631
386.666	3.49174
389.558	3.08389
392.451	4.03085
395.344	8.8935
398.236	4.95507
401.129	3.37649
404.022	6.24149
406.915	9.48422
409.807	10.6244
412.7	8.44321
415.593	16.6366
418.485	23.9076
421.378	25.7641
424.271	35.6482
427.163	38.1605
430.056	49.3865
432.949	62.8097
435.842	83.7644
438.734	112.505
441.627	162.216
444.52	219.243
447.412	294.095
450.305	361.93
453.198	435.215
456.091	428.442
458.983	365.3
461.876	264.876
464.769	164.834
467.661	98.9256
470.554	65.5008
473.447	34.5763
476.339	7.53157
479.232	12.2081
482.125	1.92779
485.017	4.0936
487.91	2.35226
490.803	5.16615
493.696	2.55887
496.588	11.2838
499.481	29.4793
502.374	39.2616
505.266	47.8253
508.159	73.743
511.052	83.0929
513.944	120.743
516.837	139.31
519.73	168.481
522.623	185.282
525.515	205.418
528.408	228.596
531.301	246.486
534.193	260.378
537.086	251.365
539.979	266.61
542.871	252.025
545.764	236.907
548.657	214.824
551.55	178.666
554.442	139.589
557.335	130.451
560.228	100.82
563.12	104.03
566.013	101.177
568.906	126.809
571.798	108.265
574.691	69.8572
577.584	40.2403
580.477	19.527
583.369	8.35028
586.262	0.98259
589.155	1.29565
592.047	4.3575
594.94	0.430923
597.833	2.45822
600.726	8.58261
603.618	8.72819
606.511	0.217194
609.404	17.2327
612.296	17.49
615.189	18.4267
618.082	24.0949
620.974	27.7122
623.867	25.8697
626.76	18.0564
629.653	25.1766
632.545	14.101
635.438	10.6949
638.331	4.4277
641.223	7.56263
644.116	11.3525
647.009	8.23833
649.901	5.23041
652.794	3.31648
655.687	1.39867
658.58	5.92715
661.472	0.014427
664.365	4.8989
667.258	10.4324
670.15	13.8925
673.043	13.2686
675.936	7.36298
678.828	17.341
681.721	17.0043
684.614	16.5846
687.506	16.0036
690.399	15.343
693.292	12.9218
696.185	22.3212
699.077	11.7263
701.97	14.9568
704.863	17.5471
707.755	7.00641
710.648	3.31639
713.541	2.92038
716.433	6.45833
719.326	4.00565
722.219	6.41533
725.112	4.52837
728.004	10.2622
730.897	16.6006
733.79	14.4095
736.682	17.6104
739.575	13.9643
742.468	10.5276
745.361	15.6668
748.253	26.0649
751.146	19.3763
754.039	27.3511
756.931	25.7124
759.824	24.44
762.717	19.8981
765.609	9.01558
768.502	15.1882
771.395	0.128128
774.288	9.45758
777.18	5.02391
780.073	6.23456
782.966	4.19255
785.858	3.94
788.751	6.2126
791.644	0.729568
794.536	1.82617
797.429	13.0561
800.322	6.48863
803.215	3.01254
806.107	13.3366
809	22.8072
811.893	37.9612
814.785	44.002
817.678	51.8774
820.571	57.6926
823.463	72.3743
826.356	74.8691
829.249	82.4618
832.141	77.9774
835.034	84.7119
837.927	88.412
840.82	82.2217
843.712	76.6282
846.605	58.7391
849.498	56.2126
852.39	43.0099
855.283	32.4446
858.176	31.7051
861.068	22.1325
863.961	18.8684
866.854	16.0042
869.747	12.9733
872.639	9.04959
875.532	1.28628
878.425	0.846344
881.317	1.40396
884.21	0.872772
887.103	4.37233
889.995	2.25619
892.888	1.99158
895.781	18.3814
898.674	20.8158
901.566	25.0994
904.459	27.4327
907.352	30.5491
910.244	56.3797
913.137	55.1707
916.03	93.3371
918.923	109.991
921.815	143.563
924.708	202.947
927.601	260.276
930.493	362.003
933.386	497.968
936.279	729.54
939.171	1061.94
942.064	1616.55
944.957	2318.3
947.85	2963.95
950.742	2975.86
953.635	2166.07
956.528	1252.28
959.42	731.253
962.313	425.982
965.206	240.295
968.098	168.296
970.991	115.329
973.884	62.9419
976.777	65.2468
979.669	47.7789
982.562	47.6729
985.455	40.2962
988.347	41.3518
991.24	36.0064
994.133	21.6895
997.025	14.4304
999.918	8.68061
1002.81	3.30018
1005.7	1.46999
1008.6	7.0406
1011.49	2.03548
1014.38	1.46279
1017.27	3.65237
1020.17	2.29016
1023.06	3.71105
1025.95	2.19617
1028.85	9.92407
1031.74	4.2702
1034.63	18.501
1037.52	29.1322
1040.42	46.6768
1043.31	71.1531
1046.2	111.041
1049.09	155.768
1051.99	185.778
1054.88	175.599
1057.77	128.589
1060.66	78.9161
1063.56	62.8331
1066.45	37.0993
1069.34	31.8097
1072.24	11.0838
1075.13	16.7846
1078.02	8.3598
1080.91	12.949
1083.81	12.5015
1086.7	6.98416
1089.59	3.17263
1092.48	7.64687
1095.38	12.4799
1098.27	10.2909
1101.16	3.21149
1104.06	7.09489
1106.95	4.00848
1109.84	5.38568
1112.73	3.38691
1115.63	0.035408
1118.52	0.534927
1121.41	2.2656
1124.3	3.39438
1127.2	1.90288
1130.09	3.61286
1132.98	14.8183
1135.88	1.19983
1138.77	5.72654
1141.66	13.1288
1144.55	8.29248
1147.45	10.5894
1150.34	3.41915
1153.23	9.79462
1156.12	8.80191
1159.02	9.33294
1161.91	9.36339
1164.8	4.78276
1167.69	9.68763
1170.59	10.4532
1173.48	2.57069
1176.37	8.8496
1179.27	6.3214
1182.16	8.07515
1185.05	12.1424
1187.94	3.36113
1190.84	16.4524
1193.73	0.483986
1196.62	9.11506
1199.51	6.49158
1202.41	5.20003
1205.3	4.43861
1208.19	9.32994
1211.09	11.8784
1213.98	12.8936
1216.87	12.5281
1219.76	7.55635
1222.66	9.41361
1225.55	15.0754
1228.44	0.701126
1231.33	15.0558
1234.23	5.56214
1237.12	3.38665
