Measurement: Raman, 514 nm, unoriented, Raman Data Processed
Mineral: Vivianite
Rruff sample: R040185
Ideal chemistry: Fe^2+^_3_(PO_4_)_2_8H_2_O
Locality: Siglo XX mine, Llallagua, Bustillos, Potosi, Bolivia
Source: University of Arizona Mineral Museum
Description: Green acicular single crystal
Measured chemistry: (Fe_1.00_Mn_0.01_)_3_(P_0.97_Si_0.03_O_3.94_F_0.07_)_2_Â·8H_2_O
Raman shift (cm-1)	intensity
91.981	0
96.161	9.239
100.34	182.237
104.516	379.974
108.691	423.652
112.864	465.066
117.034	402.322
121.203	505.143
125.369	685.686
129.534	779.771
133.696	842.859
137.857	1567.27
142.016	2406.64
146.172	1574.9
150.327	717.682
154.48	255.805
158.63	227.985
162.779	296.135
166.926	143.302
171.07	18.904
175.213	76.054
179.354	76.87
183.493	632.473
187.63	998.71
191.765	1047
195.898	1529.67
200.029	1511.88
204.158	727.159
208.285	525.856
212.41	227.911
216.533	261.873
220.654	519.533
224.773	1087.66
228.891	1405.24
233.006	997.884
237.119	1090.44
241.231	1050.2
245.34	559.753
249.448	242.969
253.553	214.857
257.657	297.844
261.758	165.302
265.858	266.163
269.956	391.914
274.052	566.821
278.146	591.186
282.237	314.411
286.327	258.656
290.416	125.985
294.502	9.755
298.586	128.343
302.668	260.313
306.749	418.19
310.827	387.696
314.903	1.981
318.978	136.717
323.051	97.2
327.121	125.498
331.19	128
335.257	55.111
339.322	126.727
343.385	85.492
347.446	79.991
351.505	72.163
355.563	34.078
359.618	58.195
363.672	12.249
367.723	150.464
371.773	48.388
375.821	7.865
379.866	230.841
383.91	207.719
387.952	181.105
391.992	84.551
396.031	77.16
400.067	100.805
404.101	42.749
408.134	82.495
412.165	140.521
416.193	173.344
420.22	214.01
424.245	134.477
428.268	74.824
432.289	59.26
436.309	157.891
440.326	365.082
444.342	308.268
448.355	389.496
452.367	600.629
456.377	562.373
460.385	512.68
464.391	455.973
468.395	436.186
472.398	208.195
476.398	30.166
480.397	185.336
484.394	249.857
488.389	175.168
492.382	135.143
496.373	254.82
500.362	497.215
504.349	437.545
508.335	413.82
512.319	541.082
516.3	660.146
520.28	873.232
524.259	930.154
528.235	806.229
532.209	922.885
536.182	1081.15
540.152	1107.55
544.121	1098.46
548.088	951.619
552.053	690.748
556.017	480.523
559.978	729.68
563.938	796.461
567.895	1260.67
571.851	1342.93
575.805	933.057
579.758	375.078
583.708	173.271
587.657	89.504
591.603	333.377
595.548	139.898
599.491	98.732
603.432	188.512
607.372	213.379
611.309	272.105
615.245	203.209
619.179	316.045
623.111	211.525
627.041	601.086
630.97	208.795
634.896	449.902
638.821	326.502
642.744	406.949
646.665	279.518
650.584	210.93
654.502	367.809
658.418	189.701
662.331	178.834
666.244	238.768
670.154	35.336
674.062	60.297
677.969	23.703
681.874	116.752
685.777	295.459
689.678	114.529
693.577	118.852
697.475	116.895
701.371	394.803
705.265	96.301
709.157	200.426
713.047	140.139
716.936	108.785
720.823	454.9
724.708	469.1
728.591	336.039
732.472	216.445
736.352	68.578
740.23	173.295
744.106	231.504
747.98	289.307
751.853	287.348
755.723	220.541
759.592	337.875
763.459	78.48
767.325	27.516
771.188	290.912
775.05	211.637
778.91	324.098
782.768	270.516
786.625	85.42
790.479	323.35
794.332	234.201
798.183	221.85
802.033	271.328
805.88	386.607
809.726	143.672
813.57	217.549
817.413	175.27
821.253	395.996
825.092	345.309
828.929	207.613
832.764	338.408
836.598	33.154
840.429	284.883
844.259	217.043
848.088	198.777
851.914	102.824
855.739	32.562
859.562	39.346
863.383	326.221
867.203	108.812
871.02	208.664
874.836	208.982
878.65	59.584
882.463	290.688
886.274	339.979
890.083	522.406
893.89	370.975
897.695	169.742
901.499	346.023
905.301	460.977
909.102	537.82
912.9	421.5
916.697	864.041
920.492	779.83
924.285	656.977
928.077	921.107
931.867	1204.43
935.655	1520.23
939.442	2630.12
943.226	4094.72
947.009	7530.15
950.791	11161.4
954.57	8077.49
958.348	4302.16
962.124	2398.48
965.899	1543.1
969.671	893.041
973.442	643.672
977.211	795.762
980.979	772.77
984.745	1141.78
988.509	919.713
992.271	569.209
996.032	601.717
999.791	804.621
1003.55	531.279
1007.3	848.203
1011.06	943.846
1014.81	736.539
1018.56	738.297
1022.31	833.074
1026.06	873.795
1029.8	853.309
1033.55	851.936
1037.29	941.881
1041.03	1573.54
1044.77	2202.3
1048.5	2896.11
1052.24	4257.77
1055.97	4371.16
1059.7	2863.98
1063.43	1819.72
1067.16	1281.67
1070.89	645.145
1074.61	682.781
1078.34	484.59
1082.06	611.285
1085.78	1147.14
1089.5	739.926
1093.21	316.105
1096.93	187.207
1100.64	287.922
1104.35	264.031
1108.06	120.57
1111.77	257.488
1115.48	58.617
1119.18	85.258
1122.89	255.387
1126.59	66.121
1130.29	107.633
1133.99	177.027
1137.68	439.188
1141.38	72.887
1145.07	68.852
1148.76	158.188
1152.45	27.234
1156.14	19.824
1159.83	84.633
1163.51	115.34
1167.19	213.07
1170.88	268.68
1174.56	132.293
1178.23	422.301
1181.91	82.223
1185.59	260.508
1189.26	300.312
1192.93	216.289
1196.6	149.895
1200.27	133.688
1203.94	727.098
1207.6	350.176
1211.27	251.898
1214.93	400.27
1218.59	364.82
1222.25	560.23
1225.9	395.363
1229.56	109.195
1233.21	590.988
1236.86	411.566
1240.51	355.023
1244.16	395.836
1247.81	419.746
1251.45	682.281
1255.1	453.477
1258.74	195.996
1262.38	137.195
1266.02	332.25
1269.66	445.527
1273.29	578.906
1276.93	158.852
1280.56	484.309
1284.19	190.191
1287.82	164.855
1291.45	15.137
1295.07	176.895
1298.7	41.113
1302.32	253.395
1305.94	226.938
1309.56	328.477
1313.18	319.945
1316.8	589.836
1320.41	175.754
1324.02	12.414
1327.63	737.301
1331.24	271.961
1334.85	0
