Measurement: Raman, 532 nm, unoriented, Raman Data Processed
Mineral: Vivianite
Rruff sample: R060025
Ideal chemistry: Fe^2+^_3_(PO_4_)_2_8H_2_O
Locality: Gypsy mine, Minas Gerais, Brazil
Source: Eric Van Valkenburg
Description: Blue-green fragment
Raman shift (cm-1)	intensity
117.821	0
121.195	1.15201
124.57	16.178
127.945	68.3484
131.32	96.413
134.695	28.2119
138.07	3.5973
141.444	2.95962
144.819	10.8518
148.194	22.246
151.569	15.658
154.944	7.80991
158.319	5.30141
161.693	27.9109
165.068	48.2575
168.443	26.3253
171.818	2.69737
175.192	2.02371
178.567	14.5274
181.942	43.3274
185.317	98.1817
188.692	155.963
192.067	201.707
195.441	283.11
198.816	341.589
202.191	234.43
205.566	100.069
208.941	40.6845
212.315	20.4413
215.69	26.8737
219.065	55.1431
222.44	103.801
225.815	170.971
229.19	211.766
232.564	205.18
235.939	220.192
239.314	248.56
242.689	183.54
246.064	92.7281
249.439	42.3586
252.813	18.7747
256.188	10.5598
259.563	7.56355
262.938	11.8935
266.313	16.0951
269.687	26.4176
273.062	33.6532
276.437	36.5472
279.812	23.9311
283.187	9.93092
286.562	0.421799
289.936	4.52458
293.311	4.59354
296.686	1.25128
300.061	8.91104
303.435	22.6577
306.81	30.9028
310.185	26.4248
313.56	14.8601
316.935	8.58917
320.31	5.37355
323.684	5.39305
327.059	5.974
330.434	7.2254
333.809	13.3341
337.184	15.0735
340.558	22.7934
343.933	28.7325
347.308	25.4498
350.683	14.9298
354.058	6.73412
357.433	3.57817
360.807	3.0128
364.182	1.6705
367.557	0.493439
370.932	1.6985
374.307	2.60684
377.682	2.18027
381.056	2.05875
384.431	1.90138
387.806	0.380264
391.181	0.922333
394.556	1.27983
397.93	0.193008
401.305	1.4935
404.68	0.605301
408.055	0.793182
411.43	2.2391
414.805	1.55075
418.179	2.5976
421.554	3.33482
424.929	6.9978
428.304	8.55977
431.679	14.0119
435.053	19.6098
438.428	27.3879
441.803	43.2677
445.178	65.0917
448.553	90.0233
451.927	121.675
455.302	140.533
458.677	125.232
462.052	86.1908
465.427	47.7555
468.801	26.341
472.176	11.5565
475.551	4.30689
478.926	0.468109
482.301	0.89505
485.676	1.49666
489.05	0.143585
492.425	4.07594
495.8	7.5403
499.175	15.1955
502.55	21.4828
505.925	31.3449
509.299	42.8937
512.674	56.6416
516.049	72.3389
519.424	86.5624
522.799	100.581
526.173	114.701
529.548	125.963
532.923	134.733
536.298	138.583
539.673	139.565
543.048	135.328
546.422	124.644
549.797	108.578
553.172	90.3946
556.547	74.6314
559.922	66.0312
563.296	68.1245
566.671	81.9217
570.046	98.3646
573.421	85.3498
576.796	47.3195
580.17	22.8953
583.545	10.759
586.92	5.08141
590.295	2.04221
593.67	1.16237
597.044	2.57965
600.419	0.271576
603.794	2.65691
607.169	2.31381
610.544	3.46864
613.919	4.82993
617.293	7.40886
620.668	7.54762
624.043	7.19876
627.418	6.8965
630.793	5.84897
634.168	3.28915
637.542	3.86716
640.917	4.09329
644.292	3.49692
647.667	2.50066
651.042	1.57344
654.416	1.27292
657.791	0.095261
661.166	1.10664
664.541	0.731369
667.916	0.383636
671.29	0.926804
674.665	1.31853
678.04	3.21022
681.415	2.78751
684.79	2.78621
688.165	3.52728
691.539	4.31413
694.914	3.60907
698.289	3.00232
701.664	2.54593
705.039	2.59981
708.413	1.98306
711.788	2.32762
715.163	0.519028
718.538	1.14885
721.913	0.910324
725.288	0.202301
728.662	2.00362
732.037	1.70126
735.412	1.2146
738.787	0.271088
742.162	1.69724
745.536	3.73952
748.911	2.49626
752.286	3.87779
755.661	3.80393
759.036	3.54794
762.41	3.3634
765.785	5.25952
769.16	3.66098
772.535	2.61179
775.91	4.09198
779.285	2.16242
782.659	0.703064
786.034	1.7301
789.409	1.03638
792.784	0.06601
796.159	0.083435
799.533	0.871277
802.908	1.06894
806.283	2.07165
809.658	3.97043
813.033	7.06842
816.408	6.95261
819.782	9.70145
823.157	10.6793
826.532	13.1404
829.907	14.3305
833.282	16.1316
836.656	15.1985
840.031	12.5995
843.406	12.837
846.781	10.4202
850.156	8.81174
853.53	7.99484
856.905	5.20401
860.28	5.14142
863.655	2.93393
867.03	1.53598
870.405	1.30643
873.779	1.58649
877.154	0.632874
880.529	1.06222
883.904	0.75061
887.279	0.447906
890.654	1.69904
894.028	0.239044
897.403	3.38217
900.778	3.01144
904.153	6.86826
907.528	8.83389
910.902	12.4286
914.277	16.8173
917.652	21.8389
921.027	32.243
924.402	45.8814
927.777	65.6568
931.151	96.8819
934.526	145.792
937.901	232.049
941.276	367.755
944.651	587.215
948.025	886.257
951.4	980.865
954.775	647.653
958.15	335.15
961.525	178.104
964.899	100.454
968.274	60.4881
971.649	38.4742
975.024	22.8327
978.399	15.441
981.774	12.9803
985.148	11.729
988.523	12.4607
991.898	13.4018
995.273	9.46198
998.648	5.66028
1002.02	2.87241
1005.4	0.82782
1008.77	0.421326
1012.15	1.5701
1015.52	1.58444
1018.9	0.269348
1022.27	3.84296
1025.65	4.41132
1029.02	10.6925
1032.4	18.3648
1035.77	32.075
1039.14	57.2898
1042.52	92.8878
1045.89	148.599
1049.27	226.52
1052.64	277.56
1056.02	217.012
1059.39	117.905
1062.77	58.8608
1066.14	30.593
1069.52	15.9258
1072.89	9.63419
1076.27	3.33872
1079.64	0.687103
1083.02	0.710052
1086.39	1.50619
1089.77	0.986237
1093.14	1.19196
1096.52	1.54019
1099.89	6.39658
1103.27	0.576538
1106.64	0.407593
1110.02	0.003052
1113.39	0.574799
1116.77	1.72705
1120.14	2.27206
1123.52	1.73627
1126.89	0.66391
1130.27	2.07648
1133.64	2.36548
1137.02	1.12604
1140.39	0.409454
1143.77	1.16412
1147.14	2.17914
1150.51	3.354
1153.89	4.90027
1157.26	3.44318
1160.64	2.70749
1164.01	2.44775
1167.39	0.431274
1170.76	1.8085
1174.14	4.01944
1177.51	2.80231
1180.89	1.86951
1184.26	2.23444
1187.64	1.6973
1191.01	1.37479
1194.39	2.22586
1197.76	0.884216
1201.14	1.25345
1204.51	2.49396
1207.89	0.299042
1211.26	1.27469
1214.64	0.985718
1218.01	1.0968
1221.38	0.445435
1224.76	0.189087
1228.13	0.027893
1231.51	0.655731
1234.88	0.134674
1238.26	0.147156
1241.63	0.232788
1245.01	0.924042
1248.38	1.15588
1251.76	1.7605
1255.13	0.368073
1258.51	1.52362
1261.88	1.4635
1265.26	0.731537
1268.63	0.095032
1272.01	1.19675
1275.38	0.506226
1278.76	1.21463
1282.13	1.37451
1285.51	0.866455
1288.88	0.563446
1292.26	0.799591
1295.63	0.062836
1299.01	0.74054
