Measurement: Raman, 780 nm, unoriented, Raman Data Processed
Mineral: Vivianite
Rruff sample: R050464
Ideal chemistry: Fe^2+^_3_(PO_4_)_2_8H_2_O
Locality: Siglo XX mine, Llallagua, Potosi, Bolivia
Source: University of Arizona Mineral Museum
Description: Bluish green elongated prismatic crystals
Measured chemistry: Fe^2+^_3.00_(P_1.00_O_4_)_2_Â·8H_2_O
Raman shift (cm-1)	intensity
136.692	0
139.584	0.080656
142.477	2.00072
145.37	4.11617
148.262	6.82165
151.155	2.85459
154.048	0.087812
156.94	0.55583
159.833	4.76918
162.726	14.4119
165.619	18.368
168.511	11.4261
171.404	4.76434
174.297	1.81291
177.189	2.88298
180.082	6.17119
182.975	11.823
185.868	20.3187
188.76	30.4045
191.653	42.8387
194.546	63.6056
197.438	84.5821
200.331	82.4944
203.224	52.2289
206.117	26.1271
209.009	14.1409
211.902	10.3675
214.795	9.39174
217.687	13.149
220.58	20.1093
223.473	30.5521
226.365	42.2262
229.258	47.0698
232.151	44.3379
235.043	47.6338
237.936	52.0531
240.829	47.6965
243.722	29.3941
246.614	16.2819
249.507	8.88843
252.4	3.98084
255.292	2.02481
258.185	1.58032
261.078	1.38398
263.971	1.84751
266.863	1.58312
269.756	2.81542
272.649	2.72857
275.541	3.51475
278.434	2.70196
281.327	1.10932
284.219	0.218473
287.112	0.101862
290.005	0.948277
292.897	0.565947
295.79	0.308789
298.683	0.974572
301.576	2.66657
304.468	3.31879
307.361	3.49279
310.254	2.85027
313.146	1.8781
316.039	1.46226
318.932	2.15685
321.825	1.32832
324.717	1.69162
327.61	2.22885
330.503	3.17417
333.395	3.96325
336.288	5.43552
339.181	6.71915
342.074	7.41438
344.966	8.21129
347.859	6.32112
350.752	4.29411
353.644	2.37855
356.537	1.19866
359.43	0.981128
362.322	0.462278
365.215	0.160479
368.108	0.809076
371	0.015494
373.893	0.200208
376.786	0.409386
379.679	0.356951
382.571	0.058357
385.464	0.007669
388.357	0.248497
391.249	0.356441
394.142	0.208131
397.035	0.275074
399.928	0.204031
402.82	0.203533
405.713	0.290944
408.606	0.719499
411.498	0.778631
414.391	0.926596
417.284	0.533804
420.176	1.10818
423.069	1.45959
425.962	2.03409
428.854	2.38016
431.747	3.41322
434.64	4.47258
437.533	6.2074
440.425	8.38624
443.318	11.3544
446.211	14.0587
449.103	18.3972
451.996	23.1993
454.889	24.9145
457.781	23.2205
460.674	18.2419
463.567	12.2605
466.46	7.71976
469.352	4.33727
472.245	2.61546
475.138	1.32486
478.031	0.902746
480.923	0.221297
483.816	0.154235
486.709	0.425222
489.601	0.016212
492.494	0.17723
495.387	0.289293
498.279	1.18439
501.172	1.46209
504.065	2.39475
506.957	3.63681
509.85	5.13389
512.743	5.9174
515.636	7.35026
518.528	9.27025
521.421	10.5136
524.314	11.8481
527.206	14.0188
530.099	14.6105
532.992	15.6816
535.885	15.5829
538.777	16.2504
541.67	15.3287
544.563	15.1229
547.455	13.7213
550.348	11.7173
553.241	8.79116
556.133	8.22385
559.026	6.75258
561.919	5.49793
564.812	5.54837
567.704	6.06619
570.597	6.22456
573.49	5.27319
576.382	2.53317
579.275	1.7741
582.168	1.00509
585.06	0.467138
587.953	0.132251
590.846	0.147588
593.739	0.262215
596.631	0.013589
599.524	0.014133
602.417	0.428854
605.309	0.588198
608.202	0.839337
611.095	0.975366
613.987	0.856129
616.88	1.29735
619.773	0.837235
622.665	1.08543
625.558	1.44305
628.451	1.38472
631.344	0.399224
634.236	0.610023
637.129	0.711647
640.022	0.48302
642.914	0.267823
645.807	0.645226
648.7	0.133937
651.593	0.402575
654.485	0.209306
657.378	0.291977
660.271	0.173915
663.163	0.373836
666.056	0.590884
668.949	0.262525
671.841	0.227083
674.734	0.769526
677.627	0.808215
680.52	0.666211
683.412	0.846664
686.305	0.597618
689.198	0.760231
692.09	0.727983
694.983	0.339986
697.876	0.35524
700.769	0.57253
703.661	0.693675
706.554	0.249249
709.447	0.251058
712.339	0.044075
715.232	0.347342
718.125	0.308513
721.017	0.025365
723.91	0.110696
726.803	0.548285
729.696	0.226798
732.588	0.425356
735.481	0.848022
738.374	1.07494
741.266	0.645811
744.159	0.679593
747.052	0.960893
749.944	0.849288
752.837	1.31985
755.73	0.913626
758.623	0.967399
761.515	0.703509
764.408	0.977484
767.301	0.805718
770.193	0.19462
773.086	0.596806
775.979	0.518608
778.871	0.115541
781.764	0.082996
784.657	0.439396
787.55	0.392145
790.442	0.084669
793.335	0.056382
796.228	0.142015
799.12	0.660028
802.013	0.668538
804.906	1.1611
807.798	1.24997
810.691	1.39197
813.584	1.64258
816.477	2.29566
819.369	2.39791
822.262	2.96619
825.155	3.80599
828.047	3.31819
830.94	3.5271
833.833	3.29256
836.726	4.00204
839.618	4.06136
842.511	3.65034
845.404	3.12662
848.296	2.88539
851.189	2.42449
854.082	1.94165
856.974	1.37093
859.867	1.62031
862.76	0.665174
865.653	0.571482
868.545	0.387681
871.438	0.465748
874.331	0.429971
877.223	0.176188
880.116	0.036121
883.009	0.150303
885.901	0.339334
888.794	0.289827
891.687	0.221345
894.58	0.111368
897.472	0.4211
900.365	0.555002
903.258	0.590289
906.15	1.37385
909.043	1.61858
911.936	2.40805
914.828	3.15414
917.721	4.75063
920.614	5.05982
923.506	6.56483
926.399	9.90267
929.292	13.0178
932.185	18.0017
935.077	27.3392
937.97	37.8112
940.863	55.3005
943.755	78.5389
946.648	107.679
949.541	131.047
952.434	114.553
955.326	71.5321
958.219	39.2526
961.112	22.4101
964.004	13.0878
966.897	9.11644
969.79	5.32163
972.683	4.02505
975.575	3.30586
978.468	2.42228
981.361	2.08621
984.253	1.75623
987.146	1.87155
990.039	1.83486
992.931	1.44269
995.824	1.01451
998.717	0.714644
1001.61	0.211488
1004.5	0.209084
1007.39	0.262526
1010.29	0.22659
1013.18	0.105108
1016.07	0.029399
1018.97	0.046902
1021.86	0.141317
1024.75	0.117059
1027.64	0.230915
1030.54	0.67256
1033.43	0.712199
1036.32	1.48757
1039.21	1.8321
1042.11	3.25474
1045	4.50507
1047.89	7.17649
1050.79	9.38445
1053.68	8.94289
1056.57	7.47564
1059.46	5.31551
1062.36	3.279
1065.25	2.3681
1068.14	1.79519
1071.03	1.42125
1073.93	1.27493
1076.82	1.19382
1079.71	0.504784
1082.61	0.715472
1085.5	0.284243
1088.39	0.067739
1091.28	0.307659
1094.18	0.271238
1097.07	0.170278
1099.96	0.031747
1102.85	0.42897
1105.75	0.597319
1108.64	0.152891
1111.53	0.524674
1114.42	0.16144
1117.32	0.001428
1120.21	0.354327
1123.1	0.165717
1126	0.085547
1128.89	0.584369
1131.78	0.201398
1134.67	0.343196
1137.57	0.300046
1140.46	0.07684
1143.35	0.233463
1146.24	0.077228
1149.14	0.446396
1152.03	0.391162
1154.92	0.652272
1157.82	0.974752
1160.71	0.326299
1163.6	0.328463
1166.49	0.691391
1169.39	0.394425
1172.28	0.62689
1175.17	0.706342
1178.06	0.360455
1180.96	0.79601
1183.85	0.267267
1186.74	0.394529
1189.63	0.3556
1192.53	0.383554
1195.42	0.299017
1198.31	0.480934
1201.21	0.314491
1204.1	0.070634
1206.99	0.577225
1209.88	0.371321
1212.78	0.224642
1215.67	0.513761
1218.56	0.482784
1221.45	0.082781
1224.35	0.060116
1227.24	0.49772
1230.13	0.543629
1233.03	0.093031
1235.92	0.299863
1238.81	0.337106
1241.7	0.471324
1244.6	0.559064
1247.49	0.377179
1250.38	0.240658
1253.28	0.363241
1256.17	0.486945
1259.06	0.31302
1261.95	0.345558
1264.85	0.451505
1267.74	0.538966
1270.63	0.283431
1273.52	0.731939
1276.42	0.201589
1279.31	0.607264
1282.2	0.476493
1285.09	0.373879
