Measurement: Raman, 532 nm, unoriented, Raman Data Processed
Mineral: Vivianite
Rruff sample: R070331
Ideal chemistry: Fe^2+^_3_(PO_4_)_2_8H_2_O
Locality: Big Fish River, Yukon Territory, Canada
Source: Mark Mauthner
Description: Platy, indigo-blue massive, associated with maricite
Measured chemistry: (Fe^2+^_1.77_Mg_1.21_Mn_0.02_)_Σ=3_(P_1.00_O_4_)_2_·8H_2_O;  (dark phase, H_2_O is estimated by difference) : Na_1.00_Fe^2+^_1.00_P_1.00_O_4_ (light phase = maricite, with trace amounts of Mn)
Raman shift (cm-1)	intensity
170.875	0
173.768	0.351807
176.66	2.16992
179.553	28.1641
182.446	167.383
185.339	469.436
188.231	923.472
191.124	1527.32
194.017	2226.22
196.909	2995.89
199.802	3358.48
202.695	3139.97
205.587	2691.88
208.48	2172.41
211.373	1746.12
214.266	1415.46
217.158	1181
220.051	972.489
222.944	665.583
225.836	514.506
228.729	348.529
231.622	235.018
234.514	257.815
237.407	339.785
240.3	496.865
243.192	627.902
246.085	756.918
248.978	809.998
251.871	821.002
254.763	804.086
257.656	761.328
260.549	720.816
263.441	725.086
266.334	739.042
269.227	808.307
272.12	907.707
275.012	1041.31
277.905	1038.42
280.798	966.785
283.69	799.87
286.583	538.387
289.476	326.912
292.368	153.794
295.261	22.0831
298.154	45.84
301.046	70.3341
303.939	24.8882
306.832	85.7621
309.725	202.067
312.617	208.205
315.51	197.949
318.403	143.602
321.295	98.4447
324.188	70.8669
327.081	56.1658
329.974	101.838
332.866	81.1547
335.759	126.612
338.652	148.46
341.544	153.856
344.437	162.679
347.33	122.801
350.223	136.507
353.115	81.93
356.008	27.3263
358.901	1.42114
361.793	41.2163
364.686	40.9333
367.579	12.1934
370.471	11.6188
373.364	27.6857
376.257	48.7261
379.149	112.515
382.042	147.354
384.935	197.729
387.828	205.072
390.72	199.924
393.613	165.874
396.506	165.176
399.398	174.887
402.291	207.627
405.184	293.371
408.077	341.083
410.969	453.303
413.862	585.987
416.755	731.484
419.647	863.16
422.54	987.492
425.433	1031.96
428.325	1005.69
431.218	896.076
434.111	724.971
437.003	544.826
439.896	432.984
442.789	313.076
445.682	323.809
448.574	316.12
451.467	376.2
454.36	436.201
457.252	475.809
460.145	482.343
463.038	440.157
465.93	394.221
468.823	293.47
471.716	175.093
474.609	116.583
477.501	34.637
480.394	34.4875
483.287	20.4005
486.179	39.7029
489.072	4.24817
491.965	55.6088
494.858	33.8325
497.75	113.142
500.643	221.251
503.536	307.797
506.428	406.926
509.321	574.857
512.214	710.362
515.106	842.71
517.999	1055.41
520.892	1268.31
523.784	1439.17
526.677	1669.1
529.57	1878.8
532.463	2047.63
535.355	2150.88
538.248	2204.24
541.141	2179.87
544.033	2102.15
546.926	1892.83
549.819	1613.24
552.712	1292.64
555.604	1038.67
558.497	804.054
561.39	681.768
564.282	595.913
567.175	651.706
570.068	694.796
572.96	785.264
575.853	812.431
578.746	615.801
581.639	448.694
584.531	313.33
587.424	192.803
590.317	132.059
593.209	65.2059
596.102	2.69446
598.995	26.736
601.888	0.482056
604.78	5.96143
607.673	2.55664
610.566	6.70105
613.458	6.42493
616.351	19.0686
619.244	24.6606
622.136	33.2653
625.029	42.0438
627.922	76.665
630.814	65.2194
633.707	55.4772
636.6	50.8097
639.493	35.0084
642.385	20.9725
645.278	39.7783
648.171	14.4176
651.063	15.7697
653.956	3.82019
656.849	2.77649
659.741	3.44348
662.634	5.49341
665.527	6.44226
668.42	27.1964
671.312	22.033
674.205	25.3552
677.098	26.968
679.99	25.5015
682.883	54.6067
685.776	84.4335
688.668	61.8059
691.561	72.8341
694.454	108.193
697.347	90.1622
700.239	92.6399
703.132	79.4351
706.025	118.457
708.917	113.743
711.81	101.97
714.703	100.312
717.596	63.1015
720.488	45.9922
723.381	46.7351
726.274	27.4592
729.166	49.6063
732.059	25.3826
734.952	37.6478
737.844	30.7571
740.737	6.61133
743.63	1.72546
746.523	25.6153
749.415	6.14105
752.308	33.4024
755.201	17.7679
758.093	31.2748
760.986	26.2705
763.879	25.9529
766.771	34.7227
769.664	51.7121
772.557	51.0154
775.45	67.3882
778.342	49.2383
781.235	70.4067
784.128	71.5624
787.02	88.8007
789.913	118.39
792.806	72.2955
795.698	86.9695
798.591	65.1995
801.484	82.909
804.377	81.0244
807.269	88.8156
810.162	63.3605
813.055	76.9208
815.947	87.0286
818.84	99.5078
821.733	81.3935
824.625	60.2696
827.518	78.7036
830.411	92.5205
833.304	86.2536
836.196	91.5168
839.089	85.8747
841.982	118.485
844.874	109.666
847.767	125.722
850.66	114.178
853.553	107.55
856.445	114.907
859.338	91.9734
862.231	91.3205
865.123	86.3435
868.016	60.7388
870.909	80.7022
873.801	40.6263
876.694	47.3056
879.587	17.2035
882.48	26.5031
885.372	14.755
888.265	18.3439
891.158	5.74078
894.05	38.8212
896.943	26.2335
899.836	33.236
902.729	27.9187
905.621	10.9117
908.514	15.0474
911.407	31.454
914.299	60.7883
917.192	101.947
920.085	184.242
922.977	281.444
925.87	436.285
928.763	629.621
931.655	935.268
934.548	1402.69
937.441	2121.73
940.334	3166.25
943.226	4732.71
946.119	6647.1
949.012	8482.96
951.904	9474.11
954.797	8797.55
957.69	6654.37
960.582	4411.72
963.475	2761.16
966.368	1676.46
969.261	1005.27
972.153	615.731
975.046	335.095
977.939	205.345
980.831	77.6515
983.724	51.423
986.617	21.5701
989.51	28.0258
992.402	62.6255
995.295	83.543
998.188	144.077
1001.08	177.577
1003.97	295.362
1006.87	441.101
1009.76	588.163
1012.65	692.577
1015.54	737.873
1018.44	711.41
1021.33	559.662
1024.22	419.646
1027.12	331.942
1030.01	245.234
1032.9	215.041
1035.79	328.312
1038.68	465.012
1041.58	607.407
1044.47	939.196
1047.36	1343.95
1050.26	1783.41
1053.15	2127.66
1056.04	2187.33
1058.93	1816.69
1061.83	1249.16
1064.72	776.294
1067.61	549.761
1070.51	363.759
1073.4	315.016
1076.29	295.404
1079.18	272.571
1082.08	244.224
1084.97	230.889
1087.86	189.948
1090.75	150.543
1093.65	86.3499
1096.54	97.0592
1099.43	53.2343
1102.33	34.3539
1105.22	10.5055
1108.11	4.07458
1111	14.8323
1113.9	18.3835
1116.79	26.8038
1119.68	15.9746
1122.57	3.68603
1125.47	15.3371
1128.36	7.84558
1131.25	18.1962
1134.14	43.2006
1137.04	67.2292
1139.93	82.8628
1142.82	109.885
1145.71	124.043
1148.61	151.516
1151.5	162.887
1154.39	184.155
1157.29	142.955
1160.18	145.346
1163.07	167.695
1165.96	193.418
1168.86	169.714
1171.75	164.075
1174.64	116.787
1177.54	134.008
1180.43	136.771
1183.32	121.555
1186.21	119.645
1189.11	131.402
1192	112.765
1194.89	92.2004
1197.78	66.8037
1200.68	87.4938
1203.57	72.3417
1206.46	64.325
1209.36	64.5916
1212.25	65.6211
1215.14	42.2231
1218.03	64.1146
1220.93	75.4109
1223.82	66.3776
1226.71	58.3547
1229.6	65.6523
1232.5	68.5679
1235.39	50.0265
1238.28	50.7365
1241.17	16.6016
1244.07	38.641
1246.96	26.6075
1249.85	23.1774
1252.74	16.2581
1255.64	14.2528
1258.53	25.4906
1261.42	17.2544
1264.32	5.11554
1267.21	6.29651
1270.1	16.5777
1272.99	12.0519
1275.89	27.6652
1278.78	20.727
1281.67	17.4925
1284.57	35.1356
1287.46	19.0266
1290.35	14.2951
1293.24	25.3946
1296.14	22.7614
1299.03	10.6392
1301.92	50.3851
1304.81	27.5627
1307.71	44.3861
1310.6	33.2095
1313.49	10.4439
