Measurement: Raman, 532 nm, unoriented, Raman Data Processed
Mineral: Vivianite
Rruff sample: R050464
Ideal chemistry: Fe^2+^_3_(PO_4_)_2_8H_2_O
Locality: Siglo XX mine, Llallagua, Potosi, Bolivia
Source: University of Arizona Mineral Museum
Description: Bluish green elongated prismatic crystals
Measured chemistry: Fe^2+^_3.00_(P_1.00_O_4_)_2_Â·8H_2_O
Raman shift (cm-1)	intensity
136.809	0
139.702	0.044884
142.594	6.63976
145.487	22.183
148.38	28.9924
151.272	12.1798
154.165	0.266022
157.058	5.24081
159.951	31.3548
162.843	73.3174
165.736	80.4217
168.629	39.2454
171.521	8.94121
174.414	5.05855
177.307	22.6557
180.199	61.937
183.092	115.442
185.985	183.134
188.877	238.956
191.77	302.814
194.663	398.483
197.556	488.979
200.448	432.906
203.341	243.134
206.234	114.101
209.126	60.7891
212.019	50.9692
214.912	63.0303
217.804	93.009
220.697	146.758
223.59	217.132
226.483	283.053
229.375	308.419
232.268	283.744
235.161	282.073
238.053	299.681
240.946	256.701
243.839	156.942
246.732	79.1692
249.624	36.7675
252.517	20.5245
255.41	11.7439
258.302	9.49426
261.195	10.7074
264.088	14.8792
266.98	21.4967
269.873	26.5348
272.766	30.9757
275.659	31.6106
278.551	23.6495
281.444	10.1845
284.337	0.12101
287.229	4.68642
290.122	4.71671
293.015	3.17048
295.907	1.74457
298.8	9.21721
301.693	19.3112
304.586	28.7316
307.478	28.6871
310.371	22.039
313.264	13.0299
316.156	8.39959
319.049	6.6153
321.942	8.15234
324.834	11.9935
327.727	14.9904
330.62	19.9576
333.512	25.5317
336.405	32.3857
339.298	39.9596
342.191	45.814
345.083	46.452
347.976	38.0725
350.869	23.4248
353.761	13.7403
356.654	6.92402
359.547	4.19278
362.44	1.60555
365.332	1.42271
368.225	1.38106
371.118	0.024834
374.01	0.197563
376.903	0.349403
379.796	0.236008
382.688	0.043663
385.581	0.733822
388.474	0.359684
391.366	0.27346
394.259	0.433632
397.152	0.312672
400.045	0.368401
402.937	0.764515
405.83	0.364563
408.723	1.65513
411.615	2.14425
414.508	3.12876
417.401	5.3764
420.293	5.99584
423.186	6.78307
426.079	11.136
428.972	14.7422
431.864	22.7709
434.757	33.6405
437.65	48.5708
440.542	68.5561
443.435	92.8805
446.328	121.41
449.221	152.688
452.113	183.757
455.006	194.565
457.899	169.205
460.791	124.52
463.684	77.9947
466.577	47.5129
469.469	24.7232
472.362	13.3966
475.255	5.15463
478.147	1.09959
481.04	1.98594
483.933	1.08753
486.826	0.277946
489.718	0.969231
492.611	5.0266
495.504	9.4083
498.396	16.2009
501.289	25.0895
504.182	34.7354
507.075	46.1428
509.967	59.4851
512.86	74.5128
515.753	88.5182
518.645	105.086
521.538	122.296
524.431	136.703
527.323	148.207
530.216	154.259
533.109	161.159
536.001	165.106
538.894	163.32
541.787	159.471
544.68	149.187
547.572	132.501
550.465	114.702
553.358	97.5153
556.25	85.2283
559.143	75.4141
562.036	72.8936
564.928	78.5159
567.821	87.7735
570.714	88.2143
573.607	65.1223
576.499	37.8006
579.392	18.8607
582.285	7.62967
585.177	3.27696
588.07	0.484112
590.963	1.23113
593.856	1.93282
596.748	0.468967
599.641	0.541111
602.534	1.63916
605.426	3.47219
608.319	5.18964
611.212	7.02992
614.104	9.13946
616.997	9.81442
619.89	8.49177
622.783	8.62983
625.675	7.89103
628.568	7.60377
631.461	5.93509
634.353	5.05416
637.246	3.67769
640.139	2.92313
643.031	3.13271
645.924	1.53766
648.817	1.29339
651.71	0.57663
654.602	0.162842
657.495	0.377945
660.388	0.87891
663.28	1.09837
666.173	1.2215
669.066	1.59775
671.958	2.19405
674.851	3.05972
677.744	3.82197
680.636	4.7816
683.529	4.98018
686.422	3.75503
689.315	3.84357
692.207	4.91346
695.1	4.81644
697.993	4.08876
700.885	3.88584
703.778	3.66185
706.671	1.46834
709.563	2.1314
712.456	0.60817
715.349	0.419525
718.242	0.132195
721.134	0.499699
724.027	0.080368
726.92	0.382942
729.812	0.738033
732.705	1.54651
735.598	2.57261
738.49	4.54323
741.383	3.78192
744.276	5.51197
747.169	5.45087
750.061	5.75692
752.954	6.81709
755.847	6.99794
758.739	7.0181
761.632	5.79029
764.525	6.63605
767.418	6.33965
770.31	4.69045
773.203	3.12073
776.096	3.16938
778.988	1.61733
781.881	0.095921
784.774	0.173294
787.666	0.28545
790.559	0.664562
793.452	0.288235
796.345	0.818058
799.237	2.62293
802.13	4.31539
805.023	7.05654
807.915	12.6285
810.808	17.5508
813.701	20.0822
816.593	20.4093
819.486	21.3942
822.379	25.7584
825.271	28.3204
828.164	30.3678
831.057	31.3342
833.95	31.1321
836.842	32.6127
839.735	28.0439
842.628	26.3483
845.52	22.2577
848.413	19.771
851.306	16.7103
854.198	13.4053
857.091	10.0976
859.984	8.2525
862.877	5.13174
865.769	5.12331
868.662	1.34084
871.555	1.51274
874.447	0.787788
877.34	0.11731
880.233	0.719604
883.125	1.53229
886.018	0.4757
888.911	0.556122
891.804	2.24236
894.696	2.65301
897.589	4.79305
900.482	7.41196
903.374	10.0435
906.267	14.4763
909.16	18.6457
912.053	26.3231
914.945	33.51
917.838	42.2527
920.731	57.0018
923.623	73.8424
926.516	100.996
929.409	139.352
932.301	196.546
935.194	293.473
938.087	442.492
940.98	641.903
943.872	901.377
946.765	1215.13
949.658	1372.92
952.55	1086.62
955.443	641.387
958.336	357.294
961.228	210.927
964.121	127.933
967.014	81.7737
969.907	55.9894
972.799	38.5999
975.692	27.2823
978.585	23.7577
981.477	21.6724
984.37	21.1969
987.263	21.0608
990.155	19.11
993.048	15.6046
995.941	10.8213
998.833	8.1458
1001.73	4.65345
1004.62	0.778534
1007.51	0.313251
1010.4	2.24211
1013.3	2.53109
1016.19	0.740326
1019.08	0.37854
1021.98	2.24572
1024.87	5.06517
1027.76	9.24484
1030.65	14.8086
1033.55	24.144
1036.44	37.6234
1039.33	60.7996
1042.22	94.8454
1045.12	139.093
1048.01	193.779
1050.9	243.694
1053.8	241.193
1056.69	173.959
1059.58	103.699
1062.47	61.0263
1065.37	37.7568
1068.26	22.1917
1071.15	13.8125
1074.04	9.19224
1076.94	5.45836
1079.83	3.74825
1082.72	2.08568
1085.62	1.26453
1088.51	1.42361
1091.4	1.64594
1094.29	0.91235
1097.18	0.143639
1100.08	0.393501
1102.97	0.412617
1105.86	0.601116
1108.76	0.051357
1111.65	0.052574
1114.54	0.628273
1117.43	0.073582
1120.33	0.175694
1123.22	0.390404
1126.11	0.485897
1129.01	0.96397
1131.9	1.35972
1134.79	1.17688
1137.68	1.60823
1140.58	2.68169
1143.47	2.1869
1146.36	2.91403
1149.25	2.67625
1152.15	2.9173
1155.04	2.27124
1157.93	3.50947
1160.83	2.3539
1163.72	2.54443
1166.61	2.04489
1169.5	2.20883
1172.4	2.27453
1175.29	2.08192
1178.18	2.30808
1181.07	1.88244
1183.97	1.66433
1186.86	1.83189
1189.75	1.96119
1192.64	1.47442
1195.54	1.25729
1198.43	1.19493
1201.32	1.49029
1204.21	1.45702
1207.11	0.556379
1210	0.861609
1212.89	0.957634
1215.79	0.638002
1218.68	0.426294
1221.57	0.346401
1224.46	0.229504
1227.36	0.684799
1230.25	0.392687
1233.14	0.805754
1236.04	0.124752
1238.93	0.914822
1241.82	0.017656
1244.71	0.513098
1247.61	0.571068
1250.5	0.838303
1253.39	0.971348
1256.28	0.7101
1259.18	0.571711
1262.07	0.369957
1264.96	0.040266
1267.86	0.568922
1270.75	1.0862
1273.64	0.998672
1276.53	1.0742
1279.42	0.026072
1282.32	0.018581
