Measurement: Raman, 780 nm, unoriented, Raman Data Processed
Mineral: Vivianite
Rruff sample: R050596
Ideal chemistry: Fe^2+^_3_(PO_4_)_2_8H_2_O
Locality: Chernomorskiy Quarry, near Kertch City, Crimea Peninsula, Ukraine
Source: Barb Dutrow
Description: Group of dark blue elongated prismatic single crystals in a fossilized clam shell
Measured chemistry: (Fe^2+^_2.89_Mg_0.08_Mn_0.03_)_Σ=3_(P_1.00_O_4_)_2_·8H_2_O
Raman shift (cm-1)	intensity
140.277	0
143.17	3.03439
146.062	10.444
148.955	12.6803
151.848	7.46457
154.741	7.09363
157.633	17.4453
160.526	39.3368
163.419	54.2039
166.311	41.2441
169.204	19.6749
172.097	5.99078
174.989	4.44854
177.882	10.8064
180.775	23.5123
183.667	40.0756
186.56	65.4973
189.453	97.5898
192.346	133.203
195.238	163.801
198.131	161.655
201.024	122.448
203.916	80.1315
206.809	51.2872
209.702	37.3035
212.595	36.5352
215.487	42.0994
218.38	56.1035
221.273	72.0797
224.165	85.6699
227.058	86.839
229.951	77.7378
232.843	68.1104
235.736	61.9772
238.629	53.2711
241.522	39.5715
244.414	23.2486
247.307	12.5926
250.2	5.76952
253.092	2.79551
255.985	0.141167
258.878	2.0266
261.77	1.56354
264.663	0.925808
267.556	0.318901
270.449	0.553028
273.341	2.62399
276.234	1.38742
279.127	1.1268
282.019	0.728531
284.912	0.205154
287.805	1.40318
290.697	2.46487
293.59	4.40184
296.483	6.27342
299.375	9.34122
302.268	11.6782
305.161	12.8008
308.054	12.2606
310.946	10.1362
313.839	8.81133
316.732	9.28209
319.624	9.24451
322.517	11.1185
325.41	11.2599
328.302	12.3173
331.195	15.5195
334.088	18.5287
336.981	21.1884
339.873	21.8127
342.766	20.4873
345.659	17.1761
348.551	12.3059
351.444	8.1995
354.337	4.83158
357.229	3.75663
360.122	1.5606
363.015	0.258144
365.908	0.308815
368.8	0.05899
371.693	0.512661
374.586	1.07688
377.478	0.156239
380.371	0.371094
383.264	0.20446
386.156	0.373383
389.049	0.65237
391.942	8.8e-05
394.834	0.283417
397.727	0.802685
400.62	0.513592
403.513	0.1945
406.405	1.31065
409.298	1.55566
412.191	2.68801
415.083	2.76939
417.976	3.47519
420.869	3.9966
423.762	5.38156
426.654	6.15784
429.547	6.97086
432.44	10.4401
435.332	13.0324
438.225	17.5182
441.118	22.6635
444.01	29.923
446.903	37.674
449.796	46.3175
452.688	51.3651
455.581	51.5188
458.474	45.581
461.366	34.7761
464.259	24.0679
467.152	14.7247
470.045	8.70596
472.937	4.56982
475.83	2.57862
478.723	0.989613
481.615	0.453663
484.508	0.809563
487.401	0.260475
490.293	0.617023
493.186	0.263123
496.079	0.84898
498.972	1.99129
501.864	3.1964
504.757	5.16118
507.65	6.20862
510.542	7.60534
513.435	9.76433
516.328	11.5348
519.221	13.3526
522.113	17.0299
525.006	19.5789
527.899	22.1049
530.791	22.9411
533.684	24.8179
536.577	25.7772
539.469	25.1545
542.362	25.6843
545.255	23.919
548.148	20.6657
551.04	18.0181
553.933	15.7935
556.826	13.2915
559.718	14.1885
562.611	13.3849
565.504	14.3484
568.396	16.4426
571.289	15.9735
574.182	11.6777
577.074	7.48195
579.967	4.0782
582.86	2.31838
585.753	1.2491
588.645	0.248875
591.538	0.960106
594.431	0.167946
597.323	0.25935
600.216	0.345242
603.109	0.833752
606.001	1.60939
608.894	1.71809
611.787	2.9104
614.68	1.87972
617.572	2.04426
620.465	2.48434
623.358	2.81789
626.25	1.57528
629.143	2.21685
632.036	1.02752
634.928	0.880116
637.821	1.02198
640.714	0.247704
643.606	0.872955
646.499	0.009308
649.392	0.605537
652.285	0.412724
655.177	0.17411
658.07	0.421421
660.963	0.154064
663.855	0.767921
666.748	0.487923
669.641	0.682995
672.534	0.904905
675.426	0.930027
678.319	0.909748
681.212	0.927137
684.104	0.762281
686.997	0.586905
689.89	1.72497
692.782	1.23799
695.675	1.19399
698.568	1.0152
701.461	0.282501
704.353	1.73224
707.246	1.59282
710.139	1.1086
713.031	1.28758
715.924	1.30439
718.817	0.78511
721.709	0.721901
724.602	0.446301
727.495	0.910015
730.388	1.79524
733.28	1.80575
736.173	2.2665
739.066	1.76846
741.958	1.82931
744.851	1.56459
747.744	1.39919
750.636	2.05073
753.529	1.76911
756.422	1.51453
759.314	1.17337
762.207	0.755939
765.1	1.2779
767.993	1.22642
770.885	0.643784
773.778	0.409214
776.671	0.097492
779.563	0.917171
782.456	0.079933
785.349	0.178333
788.241	0.894859
791.134	0.123825
794.027	0.895538
796.919	1.02468
799.812	1.23415
802.705	1.80357
805.598	2.77874
808.49	3.9527
811.383	4.06028
814.276	4.74039
817.168	5.29848
820.061	6.51541
822.954	7.67534
825.846	8.17316
828.739	8.56021
831.632	8.78355
834.525	9.43438
837.417	8.46817
840.31	8.81661
843.203	7.51324
846.095	7.40463
848.988	7.03648
851.881	5.52918
854.774	5.19756
857.666	3.68942
860.559	3.65631
863.452	2.48773
866.344	2.25716
869.237	0.563976
872.13	0.462536
875.022	0.128685
877.915	0.020931
880.808	0.356163
883.7	0.160309
886.593	0.12051
889.486	0.890228
892.379	0.277744
895.271	0.315887
898.164	1.15928
901.057	2.74269
903.949	3.91444
906.842	4.79577
909.735	6.14409
912.627	8.15129
915.52	11.6706
918.413	15.3445
921.306	20.5149
924.198	26.6482
927.091	36.7791
929.984	50.5207
932.876	71.3298
935.769	103.467
938.662	147.479
941.554	205.628
944.447	281.604
947.34	355.976
950.232	372.579
953.125	292.492
956.018	190.939
958.911	116.411
961.803	70.5849
964.696	42.7396
967.589	28.2711
970.481	19.3225
973.374	13.6518
976.267	8.89665
979.159	6.87605
982.052	5.44357
984.945	4.95693
987.838	3.97624
990.73	3.49746
993.623	2.22136
996.516	0.548971
999.408	0.324162
1002.3	0.246836
1005.19	0.943846
1008.09	0.655291
1010.98	0.631462
1013.87	0.01618
1016.76	0.242647
1019.66	0.075123
1022.55	1.55668
1025.44	1.14333
1028.34	1.67088
1031.23	2.55218
1034.12	3.68876
1037.01	6.31517
1039.91	8.75249
1042.8	13.3638
1045.69	17.6725
1048.58	23.0574
1051.48	25.2073
1054.37	21.9259
1057.26	16.0438
1060.15	10.9101
1063.05	7.07181
1065.94	4.5554
1068.83	3.36849
1071.73	2.35979
1074.62	2.50603
1077.51	1.95437
1080.4	0.439024
1083.3	1.52861
1086.19	0.989594
1089.08	1.84617
1091.97	1.14307
1094.87	0.871073
1097.76	0.707621
1100.65	0.789291
1103.55	0.652536
1106.44	0.399403
1109.33	0.466251
1112.22	0.093519
1115.12	0.326262
1118.01	0.701395
1120.9	0.212187
1123.79	0.006128
1126.69	0.550211
1129.58	0.65136
1132.47	0.853941
1135.37	0.084684
1138.26	0.867271
1141.15	0.867025
1144.04	0.480757
1146.94	1.16972
1149.83	1.55532
1152.72	1.4086
1155.61	1.13417
1158.51	0.542534
1161.4	1.04553
1164.29	1.33992
1167.18	1.22935
1170.08	1.35443
1172.97	0.90793
1175.86	1.05111
1178.76	0.807888
1181.65	0.319077
1184.54	0.585176
1187.43	1.15665
1190.33	1.04636
1193.22	1.42721
1196.11	1.12068
1199.01	0.813206
1201.9	0.185591
1204.79	0.469122
1207.68	0.861235
1210.58	0.923269
1213.47	0.598537
1216.36	1.08566
1219.25	0.147383
1222.15	0.395113
1225.04	0.686745
1227.93	0.82021
1230.82	0.232805
1233.72	0.237843
1236.61	0.315016
1239.5	0.081591
1242.39	0.190239
1245.29	0.405811
1248.18	0.869072
1251.07	0.689709
1253.97	0.388861
1256.86	0.674849
1259.75	0.244801
1262.64	0.202488
1265.54	1.08011
1268.43	0.486818
1271.32	0.40596
1274.21	0.798635
1277.11	0.401865
1280	0.017231
1282.89	0.225643
1285.79	0.016571
