Measurement: Raman, 532 nm, unoriented, Raman Data Processed
Mineral: Vivianite
Rruff sample: R050076
Ideal chemistry: Fe^2+^_3_(PO_4_)_2_8H_2_O
Locality: near Canutillos mine, Potosi, Saavedra, Bolivia
Source: Rock Currier
Description: Green prismatic and elongated single crystal
Measured chemistry: (Fe^2+^_0.99_Mn_0.01_)_3_(P_1.00_O_4_)_2_Â·8H_2_O
Raman shift (cm-1)	intensity
121.699	0
125.074	1.94714
128.449	308.73
131.823	277.81
135.198	62.5131
138.573	100.151
141.948	389.735
145.323	818.147
148.698	1081.55
152.072	879.135
155.447	702.508
158.822	1167.16
162.197	2180.84
165.572	2633.2
168.946	1411.16
172.321	721.869
175.696	748.91
179.071	1330.58
182.446	2686.27
185.821	4831.92
189.195	6810.55
192.57	9310.33
195.945	12850.1
199.32	13829.5
202.695	8101.21
206.07	3597.17
209.444	1657.66
212.819	1265.54
216.194	1868.19
219.569	3138.44
222.944	5425.6
226.318	8104.95
229.693	9100.6
233.068	8628.75
236.443	8956.47
239.818	9228.79
243.192	6226.34
246.567	3215.2
249.942	1583.15
253.317	826.956
256.692	514.56
260.067	417.107
263.441	542.924
266.816	740.932
270.191	956.318
273.566	1146.71
276.941	1065.6
280.315	604.965
283.69	136.938
287.065	170.345
290.44	222.507
293.815	130.071
297.19	99.9947
300.564	473.812
303.939	950.497
307.314	1059.86
310.689	696.258
314.064	396.324
317.438	255.117
320.813	193.244
324.188	316.346
327.563	409.216
330.938	556.664
334.313	787.336
337.687	1072.26
341.062	1420.55
344.437	1599.47
347.812	1324.99
351.187	775.293
354.562	386.59
357.936	190.517
361.311	76.2236
364.686	68.3729
368.061	12.7498
371.436	14.9718
374.81	49.8279
378.185	18.725
381.56	7.34729
384.935	16.262
388.31	10.5143
391.685	51.3558
395.059	52.4844
398.434	28.2447
401.809	61.7595
405.184	49.0045
408.559	81.2662
411.933	80.2611
415.308	98.9388
418.683	172.928
422.058	198.687
425.433	268.148
428.808	477.39
432.182	695.216
435.557	1088.04
438.932	1670.09
442.307	2663.7
445.682	3892.46
449.056	5603.03
452.431	7034.55
455.806	7237.48
459.181	5775.98
462.556	3462.61
465.93	1906.59
469.305	931.386
472.68	413.108
476.055	157.425
479.43	24.7
482.805	90.3125
486.179	39.4089
489.554	36.1462
492.929	249.283
496.304	434.278
499.679	783.051
503.053	1185.27
506.428	1631.26
509.803	2247.25
513.178	2935.7
516.553	3601.24
519.928	4340.38
523.302	5030.67
526.677	5675.11
530.052	6172.43
533.427	6585.71
536.802	6879.77
540.177	6867.91
543.551	6698.99
546.926	6060.52
550.301	5408.93
553.676	4481.72
557.051	3636.31
560.425	3394.53
563.8	3560.45
567.175	4086.09
570.55	3963.55
573.925	2687.89
577.299	1407.93
580.674	678.342
584.049	280.652
587.424	109.63
590.799	15.3337
594.174	109.661
597.548	55.6084
600.923	42.9507
604.298	105.932
607.673	239.022
611.048	279.218
614.423	375.146
617.797	375.624
621.172	375.341
624.547	362.243
627.922	303.403
631.297	230.33
634.671	160.859
638.046	143.891
641.421	113.12
644.796	85.0493
648.171	89.5476
651.545	58.8809
654.92	3.57861
658.295	17.0894
661.67	8.90503
665.045	28.6809
668.42	49.3093
671.794	34.6677
675.169	94.5869
678.544	110.325
681.919	122.142
685.294	166.688
688.668	152.354
692.043	196.859
695.418	220.793
698.793	194.178
702.168	223.405
705.543	178.871
708.917	144.228
712.292	106.679
715.667	83.1326
719.042	19.8938
722.417	35.3889
725.792	12.0415
729.166	63.5056
732.541	36.2507
735.916	98.4221
739.291	134.832
742.666	207.417
746.04	271.502
749.415	331.368
752.79	327.615
756.165	352.938
759.54	402.598
762.915	351.62
766.289	268.911
769.664	253.189
773.039	223.002
776.414	107.557
779.789	37.7183
783.163	14.0986
786.538	10.2219
789.913	24.6836
793.288	0.744873
796.663	77.2549
800.038	54.793
803.412	192.711
806.787	248.988
810.162	387.65
813.537	500.323
816.912	616.49
820.286	736.638
823.661	906.478
827.036	968.842
830.411	1047.34
833.786	1013.89
837.16	978.583
840.535	1025.91
843.91	910.136
847.285	816.564
850.66	756.035
854.035	648.546
857.409	537.267
860.784	436.878
864.159	336.901
867.534	210.704
870.909	139.925
874.284	54.5535
877.658	16.5159
881.033	0.597412
884.408	82.314
887.783	29.2568
891.158	24.376
894.533	91.2961
897.907	187.081
901.282	321.321
904.657	500.02
908.032	718.925
911.407	995.663
914.781	1327.54
918.156	1917.29
921.531	2521.89
924.906	3577.98
928.281	4920.59
931.655	7291.22
935.03	11418.2
938.405	18897.1
941.78	31292.4
945.155	46980.6
948.529	59256.5
951.904	49891.6
955.279	28274.2
958.654	14936.8
962.029	8043.67
965.404	4647.03
968.778	2849.56
972.153	1762.96
975.528	1215.25
978.903	920.355
982.278	839.217
985.653	911.351
989.027	919.17
992.402	773.444
995.777	516.345
999.152	275.44
1002.53	84.9919
1005.9	25.7754
1009.28	81.4812
1012.65	51.3145
1016.03	0.861572
1019.4	1.83765
1022.78	113.818
1026.15	255.271
1029.53	559.262
1032.9	1051.17
1036.28	1810.51
1039.65	3179.25
1043.02	5489.06
1046.4	8792.74
1049.77	12007.9
1053.15	12029.7
1056.52	7890.44
1059.9	4358
1063.27	2339.9
1066.65	1355.29
1070.02	711.705
1073.4	443.223
1076.77	258.286
1080.15	91.9138
1083.52	56.447
1086.9	28.9954
1090.27	2.63586
1093.65	6.86023
1097.02	6.93481
1100.4	0.045166
1103.77	17.9829
1107.15	4.28198
1110.52	3.77271
1113.9	10.6719
1117.27	9.78552
1120.64	6.75818
1124.02	9.59607
1127.39	48.6668
1130.77	39.3635
1134.14	97.0529
1137.52	122.984
1140.89	157.428
1144.27	186.223
1147.64	174.561
1151.02	166.147
1154.39	173.003
1157.77	164.662
1161.14	168.37
1164.52	166.654
1167.89	142.615
1171.27	131.771
1174.64	157.498
1178.02	99.695
1181.39	105.44
1184.77	110.515
1188.14	63.9481
1191.52	75.0908
1194.89	85.1835
1198.27	48.0371
1201.64	30.1361
1205.02	55.8556
1208.39	35.4918
1211.77	59.1204
1215.14	35.2948
1218.52	71.4763
1221.89	55.2395
1225.27	31.0153
1228.64	18.1561
1232.01	32.7977
1235.39	30.7645
1238.76	17.8079
1242.14	41.949
1245.51	73.0032
1248.89	8.7301
1252.26	49.2386
1255.64	8.97937
1259.01	30.8269
1262.39	29.5653
1265.76	19.7654
1269.14	36.7468
1272.51	26.0646
1275.89	59.8729
1279.26	11.1965
1282.64	23.437
1286.01	9.9386
1289.39	16.2112
1292.76	10.1126
1296.14	22.006
