Measurement: Raman, 785 nm, unoriented, Raman Data Processed
Mineral: Vivianite
Rruff sample: R050076
Ideal chemistry: Fe^2+^_3_(PO_4_)_2_8H_2_O
Locality: near Canutillos mine, Potosi, Saavedra, Bolivia
Source: Rock Currier
Description: Green prismatic and elongated single crystal
Measured chemistry: (Fe^2+^_0.99_Mn_0.01_)_3_(P_1.00_O_4_)_2_Â·8H_2_O
Raman shift (cm-1)	intensity
124.394	0
127.287	110.109
130.18	217.602
133.072	446.281
135.965	545.152
138.858	407.242
141.75	18.5341
144.643	2.09692
147.536	316.273
150.429	574.275
153.321	577.546
156.214	186.722
159.107	38.3447
161.999	243.197
164.892	355.464
167.785	246.391
170.677	74.9059
173.57	112.106
176.463	183.166
179.356	446.263
182.248	965.573
185.141	1721.46
188.034	2283.53
190.926	2430.72
193.819	2728.4
196.712	3352.34
199.604	3424.01
202.497	2290.69
205.39	1136.12
208.282	452.366
211.175	290.552
214.068	336.408
216.961	684.526
219.853	1098.37
222.746	1822.59
225.639	2692.5
228.531	3284.12
231.424	3260.84
234.317	3014.43
237.209	3043.36
240.102	3043.86
242.995	2242.15
245.888	1296.24
248.78	656.861
251.673	376.546
254.566	224.17
257.458	223.401
260.351	253.342
263.244	317.808
266.137	441.297
269.029	604.173
271.922	717.244
274.815	813.283
277.707	681.631
280.6	479.631
283.493	209.167
286.385	0.456787
289.278	82.1127
292.171	52.4179
295.063	26.4542
297.956	94.4885
300.849	289.587
303.742	514.301
306.634	658.649
309.527	559.116
312.42	384.727
315.312	258.46
318.205	148.916
321.098	115.259
323.99	30.0296
326.883	70.119
329.776	71.6609
332.669	60.5714
335.561	96.3184
338.454	129.345
341.347	149.514
344.239	182.294
347.132	143.28
350.025	104.26
352.918	59.3292
355.81	26.2515
358.703	2.04755
361.596	0.255493
364.488	4.15888
367.381	15.147
370.274	20.9279
373.166	13.09
376.059	5.59247
378.952	49.6716
381.844	12.252
384.737	19.9233
387.63	13.3729
390.523	8.61505
393.415	1.76617
396.308	3.2511
399.201	15.6265
402.093	39.2927
404.986	9.24579
407.879	16.9648
410.772	14.5554
413.664	22.0978
416.557	46.2498
419.45	41.2394
422.342	27.5445
425.235	32.1556
428.128	48.6107
431.02	71.9351
433.913	139.963
436.806	253.428
439.699	350.941
442.591	497.648
445.484	787.382
448.377	1132.12
451.269	1374.26
454.162	1636.38
457.055	1594.32
459.947	1268.43
462.84	850.723
465.733	496.718
468.625	253.054
471.518	121.297
474.411	16.8734
477.304	0.56897
480.196	34.1085
483.089	16.5758
485.982	1.12341
488.874	54.531
491.767	52.3325
494.66	180.981
497.553	240.605
500.445	323.585
503.338	485.029
506.231	672.926
509.123	840.647
512.016	1039.63
514.909	1289.73
517.802	1539.38
520.694	1743.89
523.587	1964.12
526.48	2190.68
529.372	2295.6
532.265	2434.34
535.158	2553.59
538.05	2571.08
540.943	2449.49
543.836	2389.87
546.729	2175.24
549.621	1932.01
552.514	1668.93
555.407	1508.69
558.299	1433.25
561.192	1509.52
564.085	1772.36
566.977	2196.74
569.87	2419.25
572.763	2066.83
575.655	1320.75
578.548	795.375
581.441	404.032
584.333	232.59
587.226	99.8112
590.119	33.1177
593.012	0.028625
595.904	27.0471
598.797	19.9562
601.69	28.0857
604.582	5.11883
607.475	22.893
610.368	23.3006
613.26	80.9115
616.153	101.757
619.046	80.2958
621.939	101.517
624.831	82.0817
627.724	88.1096
630.617	86.2197
633.509	89.0154
636.402	67.9642
639.295	56.5759
642.188	59.5967
645.08	52.9921
647.973	41.1607
650.866	47.1902
653.758	31.5216
656.651	5.91815
659.544	18.0604
662.436	7.65301
665.329	1.9834
668.222	13.2441
671.115	1.58594
674.007	31.326
676.9	41.1103
679.793	52.6395
682.685	64.0529
685.578	53.5613
688.471	58.7305
691.363	66.1072
694.256	62.9344
697.149	65.3634
700.042	69.8582
702.934	69.9097
705.827	53.9501
708.72	62.6868
711.612	52.0946
714.505	48.4409
717.398	19.9463
720.29	54.9979
723.183	36.6285
726.076	16.8643
728.968	15.1021
731.861	21.2123
734.754	31.4356
737.647	29.2752
740.539	64.489
743.432	30.1138
746.325	71.806
749.217	71.4948
752.11	48.8737
755.003	54.4515
757.895	82.5253
760.788	86.3757
763.681	70.0055
766.574	34.1384
769.466	50.4799
772.359	38.6899
775.252	36.3292
778.144	11.7822
781.037	28.1498
783.93	25.025
786.822	12.4912
789.715	2.37732
792.608	4.34235
795.501	29.0149
798.393	41.0448
801.286	27.9001
804.179	15.1159
807.071	34.788
809.964	41.3576
812.857	48.0107
815.75	72.7288
818.642	71.9275
821.535	76.6752
824.428	107.784
827.32	68.9159
830.213	96.3891
833.106	99.8881
835.998	104.86
838.891	133.562
841.784	113.769
844.677	97.4641
847.569	61.8951
850.462	66.6108
853.355	80.471
856.247	58.3529
859.14	38.67
862.033	37.4633
864.925	13.3585
867.818	10.6752
870.711	3.02393
873.604	0.998474
876.496	19.03
879.389	7.64691
882.282	7.16193
885.174	0.762146
888.067	6.66467
890.96	0.375854
893.852	17.2667
896.745	7.54974
899.638	0.480225
902.53	12.5306
905.423	82.1298
908.316	96.0903
911.209	152.225
914.101	214.359
916.994	268.856
919.887	362.163
922.779	511.959
925.672	755.837
928.565	1038.55
931.457	1472.9
934.35	2180.28
937.243	3417.2
940.136	5452.84
943.028	8598.5
945.921	12548.9
948.814	15831.5
951.706	14848.3
954.599	10281.4
957.492	6087.76
960.385	3548.3
963.277	2122.66
966.17	1296.29
969.063	830.461
971.955	525.003
974.848	255.366
977.741	149.637
980.633	69.3411
983.526	65.8201
986.419	80.3055
989.312	158.523
992.204	103.294
995.097	113.704
997.99	107.37
1000.88	33.6359
1003.77	6.94629
1006.67	3.54981
1009.56	5.89465
1012.45	8.74536
1015.35	14.2508
1018.24	29.4485
1021.13	75.2283
1024.02	125.495
1026.92	217.468
1029.81	304.142
1032.7	542.028
1035.6	812.986
1038.49	1264.92
1041.38	1979.79
1044.27	3010.21
1047.17	4422.95
1050.06	5753.38
1052.95	5846.14
1055.84	4427.44
1058.74	2723.28
1061.63	1498.04
1064.52	883.106
1067.41	534.667
1070.31	351.339
1073.2	220.363
1076.09	129.215
1078.98	49.8455
1081.88	50.6752
1084.77	1.06067
1087.66	2.42071
1090.56	13.8241
1093.45	4.46893
1096.34	23.7123
1099.23	4.13892
1102.13	31.4232
1105.02	18.9516
1107.91	3.16461
1110.81	1.82623
1113.7	20.7618
1116.59	8.98468
1119.48	8.66657
1122.38	22.9556
1125.27	32.2492
1128.16	36.504
1131.05	35.1818
1133.95	28.9778
1136.84	58.0008
1139.73	63.7302
1142.62	67.4481
1145.52	93.6335
1148.41	95.5474
1151.3	99.9715
1154.19	82.2745
1157.09	60.5783
1159.98	94.0339
1162.87	77.5408
1165.77	56.6933
1168.66	83.3858
1171.55	88.3669
1174.44	56.4752
1177.34	50.3601
1180.23	41.9245
1183.12	45.94
1186.02	43.2246
1188.91	51.8134
1191.8	62.0071
1194.69	30.0725
1197.59	21.099
1200.48	16.551
1203.37	36.9948
1206.26	40.286
1209.16	16.6085
1212.05	41.0999
1214.94	39.9938
1217.84	37.4205
1220.73	13.3712
1223.62	2.5553
1226.51	0.566528
