Measurement: Raman, 532 nm, unoriented, Raman Data Processed
Mineral: Vladimirite
Rruff sample: R080001
Ideal chemistry: Ca_4_(As^5+^O_4_)_2_(As^5+^O_3_OH)4H_2_O
Locality: Corbriza mine, Copiapó, Chile
Source: Bob Jenkins
Description: Parallel aggregate of colorless thin prisms.
Measured chemistry: (Ca_3.974_Zn_0.002_Mn_0.002_)_Σ=3.978_(As_1.009_O_3_OH)(AsO_4_)_2_·4H_2_O
Raman shift (cm-1)	intensity
118.476	0
121.851	21.5955
125.226	356.627
128.601	719.062
131.976	767.056
135.35	417.446
138.725	33.3621
142.1	21.5449
145.475	44.9968
148.85	208.961
152.225	110.101
155.599	134.194
158.974	273.775
162.349	334.807
165.724	435.519
169.099	395.888
172.473	55.846
175.848	131.526
179.223	180.048
182.598	142.806
185.973	196.527
189.347	425.148
192.722	339.408
196.097	148.795
199.472	197.955
202.847	260.899
206.221	429.361
209.596	444.588
212.971	237.05
216.346	96.0493
219.721	109.659
223.096	164.198
226.47	146.869
229.845	244.179
233.22	512.937
236.595	578.589
239.97	324.775
243.345	173.599
246.719	239.843
250.094	335.06
253.469	212.021
256.844	118.105
260.219	240.223
263.593	270.18
266.968	238.356
270.343	248.365
273.718	196.898
277.093	86.6357
280.467	70.4646
283.842	111.153
287.217	33.0696
290.592	155.267
293.967	425.477
297.342	694.428
300.716	945.345
304.091	1040.45
307.466	936.542
310.841	522.107
314.216	176.015
317.591	21.9722
320.965	16.1453
324.34	92.0076
327.715	256.018
331.09	520.95
334.464	957.664
337.839	1342.66
341.214	1233.2
344.589	1021.27
347.964	1158.95
351.339	1504.16
354.713	1895.33
358.088	2082.94
361.463	1911.87
364.838	1702.74
368.213	1672.69
371.587	1569.4
374.962	1297.89
378.337	1220.17
381.712	1221.55
385.087	1050.55
388.462	767.789
391.836	477.148
395.211	270.796
398.586	248.994
401.961	186.69
405.336	112.162
408.711	90.9031
412.085	163.636
415.46	387.81
418.835	717.499
422.21	1091.33
425.585	1279.5
428.959	1203.32
432.334	1028.53
435.709	805.997
439.084	433.037
442.459	164.311
445.834	91.9336
449.208	148.482
452.583	154.985
455.958	69.3723
459.333	38.9304
462.708	51.5478
466.082	3.03052
469.457	13.6506
472.832	1.4104
476.207	17.6416
479.582	15.8645
482.957	21.5632
486.331	56.9421
489.706	83.5759
493.081	151.516
496.456	215.082
499.83	224.773
503.205	219.99
506.58	210.472
509.955	153.985
513.33	112.075
516.705	76.6135
520.079	15.3066
523.454	4.146
526.829	9.03516
530.204	5.59033
533.579	22.1721
536.953	31.1084
540.328	70.2178
543.703	98.4006
547.078	132.657
550.453	168.946
553.828	156.269
557.202	143.015
560.577	100.904
563.952	75.9553
567.327	54.2109
570.702	56.1636
574.077	52.1494
577.451	62.6853
580.826	54.2703
584.201	61.8779
587.576	78.8462
590.951	100.596
594.325	126.53
597.7	126.843
601.075	140.502
604.45	156.003
607.825	172.312
611.199	181.407
614.574	170.745
617.949	177.995
621.324	188.054
624.699	186.275
628.073	183.501
631.448	183.232
634.823	173.08
638.198	200.673
641.573	207.025
644.948	223.921
648.322	225.429
651.697	211.662
655.072	196.671
658.447	190.947
661.822	187.358
665.197	179.679
668.571	160.644
671.946	139.096
675.321	110.735
678.696	84.2878
682.071	55.0686
685.445	28.6995
688.82	16.0418
692.195	11.845
695.57	8.30273
698.945	8.66968
702.319	8.14966
705.694	6.74854
709.069	19.3057
712.444	8.87183
715.819	6.02539
719.193	14.0337
722.568	35.7803
725.943	32.7236
729.318	45.7998
732.693	24.2739
736.068	44.7598
739.442	125.084
742.817	198.82
746.192	248.817
749.567	318.709
752.942	367.104
756.317	405.885
759.691	427.144
763.066	368.581
766.441	265.852
769.816	110.462
773.191	35.0605
776.565	55.3413
779.94	87.0068
783.315	524.457
786.69	1257.37
790.065	2299.38
793.439	3893.54
796.814	5730.69
800.189	6427.67
803.564	5568.36
806.939	4259.24
810.314	3732.84
813.688	4047.17
817.063	4632.66
820.438	4626.74
823.813	4173.09
827.188	4477.8
830.562	5693.99
833.937	6664.39
837.312	8161.49
840.687	11537.4
844.062	13546.8
847.437	8441.41
850.811	6207.86
854.186	7804.58
857.561	8940.57
860.936	4503.02
864.311	2312.14
867.686	1453.56
871.06	1305.74
874.435	1400.12
877.81	854.033
881.185	426.985
884.56	278.454
887.934	187.875
891.309	129.422
894.684	80.2666
898.059	49.2661
901.434	12.1343
904.808	32.4756
908.183	63.0525
911.558	44.2461
914.933	42.127
918.308	33.8406
921.683	22.0359
925.057	1.1167
928.432	30.0713
931.807	53.9778
935.182	78.5251
938.557	103.12
941.932	127.864
945.306	148.392
948.681	183.557
952.056	202.413
955.431	237.147
958.806	248.235
962.18	270.843
965.555	284.744
968.93	286.114
972.305	273.467
975.68	256.54
979.054	253.077
982.429	254.825
985.804	237.841
989.179	203.624
992.554	201.159
995.928	179.305
999.303	181.932
1002.68	164.929
1006.05	159.694
1009.43	156.048
1012.8	128.798
1016.18	118.252
1019.55	131.571
1022.93	115.662
1026.3	118.983
1029.68	105.79
1033.05	105.327
1036.43	77.9141
1039.8	86.2356
1043.18	62.5923
1046.55	69.3
1049.93	40.7302
1053.3	17.8032
1056.67	16.165
1060.05	19.855
1063.42	3.56714
1066.8	3.51587
1070.17	1.27661
1073.55	11.144
1076.92	4.70825
1080.3	9.22095
1083.67	2.77295
1087.05	4.26367
1090.42	19.3887
1093.8	24.1365
1097.17	25.5786
1100.55	24.488
1103.92	40.2043
1107.3	36.6785
1110.67	64.6936
1114.05	82.4334
1117.42	54.7009
1120.8	32.6597
1124.17	28.9309
1127.55	24.0727
1130.92	16.3115
1134.3	7.43115
1137.67	16.0442
1141.05	12.2349
1144.42	13.5771
1147.8	17.5056
1151.17	22.543
1154.55	36.0242
1157.92	36.7522
1161.29	34.5051
1164.67	45.408
1168.04	31.1079
1171.42	19.356
1174.79	27.6072
1178.17	5.15186
1181.54	16.5146
1184.92	9.90698
1188.29	15.7651
1191.67	2.30737
1195.04	3.11621
1198.42	1.90942
1201.79	7.72314
1205.17	3.15234
1208.54	17.4145
1211.92	4.34619
1215.29	24.8157
1218.67	29.9209
1222.04	19.7183
1225.42	25.6643
1228.79	20.3965
1232.17	33.7898
1235.54	29.8538
1238.91	19.7764
1242.29	24.0745
1245.66	44.9209
1249.04	27.6704
1252.41	24.1985
1255.79	29.1394
1259.16	45.3403
1262.54	37.6218
1265.91	41.5691
1269.29	39.5127
1272.66	35.7566
1276.04	35.1421
1279.41	24.6196
1282.79	26.292
1286.16	19.7463
1289.54	15.0632
1292.91	1.33887
1296.29	10.4353
1299.66	7.87524
1303.04	8.19336
