Measurement: Raman, 532 nm, unoriented, Raman Data Processed
Mineral: Vladimirite
Rruff sample: R100075
Ideal chemistry: Ca_4_(As^5+^O_4_)_2_(As^5+^O_3_OH)4H_2_O
Locality: Ait Ahmane vein No. 53, Bou Azzer district, Morroco
Source: Bob Jenkins
Description: Sprays of elongated bladed colorless crystals
Measured chemistry: Ca_4.03_(As_0.99_O_3_OH)(AsO_4_)_2_Â·4H_2_O
Raman shift (cm-1)	intensity
165.22	0
168.113	4.04623
171.006	0.550766
173.898	0.038696
176.791	14.821
179.684	26.1643
182.577	34.0072
185.469	39.6493
188.362	51.7816
191.255	67.8471
194.147	51.8787
197.04	34.4506
199.933	36.6501
202.825	42.4578
205.718	50.7863
208.611	55.3643
211.504	41.2932
214.396	19.5021
217.289	6.63332
220.182	3.95653
223.074	8.66138
225.967	8.57796
228.86	9.00891
231.752	20.391
234.645	34.4909
237.538	29.3925
240.43	13.821
243.323	8.19525
246.216	8.40952
249.109	13.2255
252.001	15.5976
254.894	13.389
257.787	14.1247
260.679	23.366
263.572	26.4679
266.465	28.2819
269.358	22.8236
272.25	17.2431
275.143	11.5825
278.036	4.746
280.928	5.65506
283.821	6.28749
286.714	2.24471
289.606	12.3263
292.499	24.2437
295.392	41.2667
298.284	58.8038
301.177	76.1344
304.07	83.8654
306.963	78.8144
309.855	56.5466
312.748	29.8726
315.641	12.5519
318.533	2.55841
321.426	3.76269
324.319	0.140839
327.212	5.00583
330.104	26.1806
332.997	39.8279
335.89	59.1393
338.782	82.557
341.675	80.883
344.568	70.2064
347.46	68.6027
350.353	78.7313
353.246	98.0677
356.139	120.738
359.031	130.238
361.924	115.352
364.817	97.0436
367.709	85.4069
370.602	83.3309
373.495	77.5825
376.387	75.1358
379.28	86.0321
382.173	97.281
385.065	107.763
387.958	110.612
390.851	97.153
393.744	72.2282
396.636	49.8803
399.529	38.6108
402.422	29.1308
405.314	20.8739
408.207	14.5254
411.1	20.9076
413.993	31.4359
416.885	50.401
419.778	77.7235
422.671	103.091
425.563	111.765
428.456	98.8062
431.349	83.6798
434.241	76.3447
437.134	63.0437
440.027	46.4446
442.92	32.0928
445.812	25.0127
448.705	31.2006
451.598	35.2867
454.49	33.3137
457.383	19.868
460.276	10.874
463.168	8.31732
466.061	9.64989
468.954	9.19998
471.846	3.41263
474.739	2.09358
477.632	1.77562
480.525	4.07225
483.417	4.18993
486.31	2.62479
489.203	4.53662
492.095	1.98421
494.988	1.27537
497.881	1.03908
500.774	2.5993
503.666	4.54053
506.559	5.936
509.452	7.05501
512.344	6.5764
515.237	8.33505
518.13	5.91017
521.022	7.43004
523.915	7.57645
526.808	11.0704
529.701	12.6079
532.593	13.2155
535.486	19.7517
538.379	21.0921
541.271	23.2149
544.164	25.6587
547.057	28.056
549.949	32.1623
552.842	26.9279
555.735	25.2765
558.628	22.293
561.52	14.3179
564.413	11.2343
567.306	11.4788
570.198	7.69725
573.091	7.67979
575.984	4.52631
578.876	4.79797
581.769	4.80366
584.662	5.05754
587.554	5.52306
590.447	3.65915
593.34	5.21284
596.232	5.44287
599.125	5.04919
602.018	6.24596
604.911	7.63661
607.803	6.94693
610.696	7.4548
613.589	8.91411
616.481	9.52214
619.374	7.89537
622.267	9.2184
625.159	10.6253
628.052	10.1452
630.945	9.19069
633.838	12.9128
636.73	14.2261
639.623	13.7741
642.516	11.3307
645.408	14.9686
648.301	16.8617
651.194	18.772
654.087	19.1093
656.979	16.9878
659.872	18.5668
662.765	18.2049
665.657	16.788
668.55	15.7344
671.443	15.5038
674.335	15.4645
677.228	11.0767
680.121	8.75641
683.014	7.38913
685.906	5.24075
688.799	3.27063
691.692	3.26865
694.584	0.982117
697.477	0.24646
700.37	0.807709
703.263	1.67481
706.155	3.4884
709.048	0.883423
711.941	3.24551
714.833	1.88629
717.726	4.38415
720.619	2.03168
723.511	2.40048
726.404	1.39673
729.297	3.18701
732.189	9.49548
735.082	16.0002
737.975	24.1086
740.868	35.9683
743.76	49.3316
746.653	68.7413
749.546	82.6905
752.438	99.2712
755.331	111.042
758.224	114.614
761.116	116.958
764.009	106.707
766.902	88.1509
769.795	66.4849
772.687	46.5956
775.58	25.9374
778.473	11.5467
781.365	3.5282
784.258	2.17483
787.151	11.5391
790.043	35.0957
792.936	68.3283
795.829	117.067
798.722	160.69
801.614	185.9
804.507	192.112
807.4	184.775
810.292	211.154
813.185	264.968
816.078	336.04
818.971	392.238
821.863	392.13
824.756	379.066
827.649	405.248
830.541	501.151
833.434	572.052
836.327	608.981
839.219	706.421
842.112	886.296
845.005	919.185
847.898	634.506
850.79	435.459
853.683	430.792
856.576	515.42
859.468	464.129
862.361	239.722
865.254	130.199
868.146	93.7348
871.039	104.64
873.932	122.226
876.824	107.626
879.717	62.9843
882.61	35.64
885.503	19.924
888.395	14.1723
891.288	4.01712
894.181	2.28287
897.073	1.46704
899.966	1.86292
902.859	4.0954
905.751	5.43722
908.644	3.02728
911.537	4.69897
914.43	2.31677
917.322	1.97003
920.215	1.00507
923.108	0.001038
926	4.77942
928.893	2.88101
931.786	7.29199
934.678	11.022
937.571	8.71048
940.464	12.2409
943.357	10.4618
946.249	15.3371
949.142	15.8209
952.035	15.7025
954.927	18.6953
957.82	20.6316
960.713	17.1614
963.606	19.8279
966.498	17.1027
969.391	15.3325
972.284	17.2836
975.176	18.469
978.069	18.8239
980.962	16.3999
983.854	19.1251
986.747	16.3215
989.64	14.2651
992.533	11.8996
995.425	10.631
998.318	9.15866
1001.21	8.78775
1004.1	10.6039
1007	8.40216
1009.89	9.30423
1012.78	8.09512
1015.67	8.0333
1018.57	5.9097
1021.46	8.07095
1024.35	4.13202
1027.24	4.22833
1030.14	6.36353
1033.03	1.75833
1035.92	5.13074
1038.82	4.15832
1041.71	3.00482
1044.6	2.21994
1047.49	2.86111
1050.39	0.499969
1053.28	2.69095
1056.17	3.68451
1059.07	2.69489
1061.96	2.58655
1064.85	0.226135
1067.74	0.889526
1070.63	2.44546
1073.53	2.35596
1076.42	0.641937
1079.31	1.7265
1082.21	1.6629
1085.1	4.20514
1087.99	6.11075
1090.88	2.71835
1093.78	2.64291
1096.67	3.08969
1099.56	2.34982
1102.45	0.321136
1105.35	1.76886
1108.24	1.81195
1111.13	2.78458
1114.03	1.07498
1116.92	1.71692
1119.81	0.187775
1122.7	0.140106
1125.6	0.8172
1128.49	0.717926
1131.38	0.929626
1134.28	1.45618
1137.17	1.13733
1140.06	1.59085
1142.95	2.47284
1145.85	3.6232
1148.74	3.90741
1151.63	2.651
1154.52	2.25165
1157.42	0.176941
1160.31	2.9747
1163.2	2.17258
1166.09	0.220123
1168.99	2.37781
1171.88	0.43573
1174.77	3.00604
1177.66	4.08182
1180.56	1.93884
1183.45	0.354279
1186.34	2.64468
1189.24	1.36539
1192.13	3.68591
1195.02	1.15366
1197.91	2.94373
1200.81	0.364197
1203.7	2.45621
1206.59	2.17761
1209.48	0.632813
1212.38	2.99329
1215.27	2.95737
1218.16	1.82724
1221.06	1.71802
1223.95	1.82507
1226.84	0.222137
1229.73	0.39624
1232.63	2.84878
1235.52	2.96924
1238.41	1.39127
1241.31	3.13858
1244.2	3.10797
1247.09	3.18607
1249.98	3.21335
1252.88	3.87543
1255.77	4.58136
1258.66	1.04999
1261.55	2.30335
1264.45	2.85147
1267.34	2.09866
1270.23	2.16287
1273.12	5.05844
1276.02	4.48947
1278.91	1.5292
1281.8	2.92658
1284.69	1.27768
1287.59	1.47107
1290.48	2.59015
1293.37	0.186768
1296.27	2.03357
1299.16	0.601074
1302.05	1.23657
