Measurement: Raman, 780 nm, unoriented, Raman Data Processed
Mineral: Vladimirite
Rruff sample: R100075
Ideal chemistry: Ca_4_(As^5+^O_4_)_2_(As^5+^O_3_OH)4H_2_O
Locality: Ait Ahmane vein No. 53, Bou Azzer district, Morroco
Source: Bob Jenkins
Description: Sprays of elongated bladed colorless crystals
Measured chemistry: Ca_4.03_(As_0.99_O_3_OH)(AsO_4_)_2_Â·4H_2_O
Raman shift (cm-1)	intensity
91.5332	0
94.908	19.9504
98.2828	22.0549
101.658	2.02365
105.032	2.34024
108.407	12.727
111.782	23.3072
115.157	41.3716
118.532	38.3697
121.907	26.7769
125.281	36.6949
128.656	37.1416
132.031	21.8312
135.406	9.19179
138.781	3.24863
142.155	2.78412
145.53	3.47868
148.905	13.4744
152.28	11.2084
155.655	17.4001
159.03	34.4041
162.404	31.0507
165.779	34.5471
169.154	33.313
172.529	24.777
175.904	32.6161
179.278	40.4452
182.653	37.3601
186.028	32.1281
189.403	39.3973
192.778	35.9515
196.153	31.3644
199.527	33.3874
202.902	38.3299
206.277	43.6372
209.652	46.0888
213.027	29.4183
216.401	12.6438
219.776	5.74567
223.151	8.00499
226.526	9.58872
229.901	14.9669
233.275	25.4662
236.65	28.2991
240.025	14.2909
243.4	11.8868
246.775	13.4943
250.15	15.8388
253.524	10.0518
256.899	6.68732
260.274	11.7169
263.649	11.0169
267.024	13.2674
270.399	10.9071
273.773	6.04538
277.148	2.27206
280.523	6.69476
283.898	7.45213
287.273	1.3877
290.647	11.2041
294.022	25.7341
297.397	43.6384
300.772	55.8167
304.147	58.3334
307.522	51.465
310.896	35.0865
314.271	21.4604
317.646	14.7864
321.021	12.4798
324.396	21.2823
327.77	36.9762
331.145	60.1821
334.52	88.4139
337.895	114.414
341.27	111.676
344.644	93.7396
348.019	96.6107
351.394	115.22
354.769	137.207
358.144	146.32
361.519	126.378
364.893	93.1744
368.268	73.915
371.643	70.1744
375.018	65.4385
378.393	73.6405
381.767	86.3366
385.142	92.9742
388.517	91.8546
391.892	64.0007
395.267	33.8385
398.642	15.3589
402.016	8.07031
405.391	1.86418
408.766	2.17992
412.141	7.15216
415.516	24.4711
418.89	49.3312
422.265	72.6141
425.64	77.0121
429.015	69.1622
432.39	61.7358
435.765	49.4307
439.139	29.2022
442.514	15.5989
445.889	13.2875
449.264	20.9187
452.639	22.4505
456.014	14.4697
459.388	4.99036
462.763	5.51765
466.138	5.00833
469.513	5.93373
472.887	3.20441
476.262	2.25954
479.637	3.39689
483.012	3.23055
486.387	2.39074
489.762	1.84886
493.136	0.777542
496.511	2.4885
499.886	4.13777
503.261	4.47015
506.636	5.37796
510.01	4.48435
513.385	6.1821
516.76	6.3204
520.135	5.80378
523.51	5.90402
526.885	7.67113
530.259	10.0836
533.634	10.8315
537.009	10.9946
540.384	11.8493
543.759	14.2439
547.134	13.8771
550.508	15.1797
553.883	13.176
557.258	11.6057
560.633	9.6046
564.008	7.1054
567.382	6.06964
570.757	3.98085
574.132	3.34132
577.507	3.77236
580.882	4.58762
584.256	2.31228
587.631	2.4042
591.006	3.0246
594.381	4.43818
597.756	5.54138
601.131	5.85547
604.505	4.38577
607.88	6.50701
611.255	8.303
614.63	7.15121
618.005	6.32018
621.38	7.13708
624.754	7.91089
628.129	7.64783
631.504	6.74385
634.879	8.20043
638.254	8.11972
641.628	7.15813
645.003	8.72808
648.378	8.47947
651.753	10.4172
655.128	7.92245
658.503	7.71426
661.877	10.0002
665.252	8.8251
668.627	8.10385
672.002	6.74255
675.377	5.31397
678.751	5.0396
682.126	2.07376
685.501	2.93687
688.876	2.40009
692.251	1.60295
695.625	0.673836
699	0.102085
702.375	0.731544
705.75	0.274712
709.125	1.37699
712.5	0.7481
715.874	0.624126
719.249	1.73434
722.624	1.00192
725.999	0.817303
729.374	0.634727
732.749	3.98529
736.123	6.73886
739.498	9.43685
742.873	14.9149
746.248	18.484
749.623	23.1236
752.997	26.6233
756.372	28.7858
759.747	29.2056
763.122	25.0366
766.497	15.4765
769.871	7.38902
773.246	0.20739
776.621	4.89091
779.996	2.22137
783.371	10.2484
786.745	33.3489
790.12	65.3959
793.495	107.159
796.87	157.724
800.245	183.269
803.62	184.088
806.994	177.89
810.369	193.765
813.744	240.964
817.119	298.237
820.494	315.681
823.869	304.445
827.243	338.85
830.618	433.79
833.993	487.601
837.368	565.423
840.743	716.178
844.117	798.51
847.492	537.32
850.867	406.079
854.242	445.943
857.617	482.973
860.991	272.439
864.366	148.311
867.741	108.605
871.116	116.091
874.491	122.279
877.866	79.2795
881.24	40.7762
884.615	27.041
887.99	15.4358
891.365	10.1024
894.74	5.60604
898.115	4.12539
901.489	0.783092
904.864	1.06641
908.239	2.80705
911.614	1.59066
914.989	1.99254
918.363	1.23091
921.738	0.753082
925.113	0.374603
928.488	1.74215
931.863	2.94884
935.237	4.57726
938.612	4.11347
941.987	5.16658
945.362	6.81189
948.737	8.25278
952.112	8.18967
955.486	10.2788
958.861	10.108
962.236	10.43
965.611	11.4932
968.986	11.0574
972.361	10.2979
975.735	10.9319
979.11	11.3521
982.485	11.4438
985.86	9.21184
989.235	8.50497
992.609	7.38368
995.984	4.32066
999.359	3.94272
1002.73	4.94103
1006.11	3.09796
1009.48	4.29427
1012.86	4.96444
1016.23	5.54378
1019.61	3.99661
1022.98	1.92992
1026.36	2.69203
1029.73	1.5581
1033.11	2.01648
1036.48	1.95895
1039.86	0.400732
1043.23	0.360581
1046.61	1.8412
1049.98	2.29733
1053.36	1.31123
1056.73	0.020835
1060.11	2.27576
1063.48	0.535338
1066.86	1.66735
1070.23	2.59051
1073.61	0.257911
1076.98	2.84019
1080.36	2.46423
1083.73	0.799357
1087.1	1.34722
1090.48	2.04536
1093.85	1.43841
1097.23	2.70487
1100.6	0.290562
1103.98	0.447825
1107.35	1.02676
1110.73	0.472738
1114.1	0.927099
1117.48	1.2704
1120.85	0.364125
1124.23	0.910967
1127.6	0.7163
1130.98	1.01841
1134.35	0.194704
1137.73	0.588579
1141.1	1.07049
1144.48	0.835326
1147.85	0.607046
1151.23	0.125865
1154.6	0.11634
1157.97	1.09739
1161.35	0.873691
1164.72	0.401746
1168.1	0.072922
1171.47	1.11516
1174.85	0.436376
1178.22	1.75709
1181.6	0.384255
1184.97	1.63572
1188.35	1.28259
1191.72	0.493132
1195.1	1.44212
1198.47	2.08594
1201.85	2.15774
1205.22	1.26032
1208.6	0.920691
1211.97	0.348531
1215.35	1.01054
1218.72	2.00305
1222.1	0.998493
1225.47	1.03787
1228.85	1.74473
1232.22	2.23422
1235.6	1.35935
1238.97	1.40301
1242.35	0.12796
1245.72	2.30682
1249.1	2.13275
1252.47	1.60438
1255.85	1.45928
1259.22	1.45378
1262.6	1.1535
1265.97	1.67712
1269.34	0.19486
1272.72	2.20665
1276.09	1.32054
1279.47	1.1657
1282.84	2.07845
