Measurement: Raman, 780 nm, unoriented, Raman Data Processed
Mineral: Vladimirite
Rruff sample: R080001
Ideal chemistry: Ca_4_(As^5+^O_4_)_2_(As^5+^O_3_OH)4H_2_O
Locality: Corbriza mine, Copiapó, Chile
Source: Bob Jenkins
Description: Parallel aggregate of colorless thin prisms.
Measured chemistry: (Ca_3.974_Zn_0.002_Mn_0.002_)_Σ=3.978_(As_1.009_O_3_OH)(AsO_4_)_2_·4H_2_O
Raman shift (cm-1)	intensity
101.26	0
104.635	0.185059
108.009	87.0215
111.384	121.274
114.759	314.228
118.134	226.593
121.509	180.646
124.883	292.119
128.258	367.764
131.633	380.531
135.008	234.912
138.383	27.2441
141.757	16.3486
145.132	6.49976
148.507	28.8184
151.882	34.1006
155.257	50.3862
158.632	104.501
162.006	116.118
165.381	132.102
168.756	125.433
172.131	51.5801
175.506	63.1968
178.881	93.7239
182.255	81.1199
185.63	63.5405
189.005	74.0703
192.38	54.6416
195.755	26.135
199.129	24.188
202.504	59.6582
205.879	129.657
209.254	163.992
212.629	135.503
216.004	107.498
219.378	135.163
222.753	169.296
226.128	164.003
229.503	167.78
232.877	253.943
236.252	245.21
239.627	193.204
243.002	132.241
246.377	129.651
249.752	145.038
253.126	122.784
256.501	81.322
259.876	118.567
263.251	114.844
266.626	69.1587
270	65.7061
273.375	54.1533
276.75	15.7148
280.125	21.5171
283.5	29.4092
286.875	10.2839
290.249	80.3106
293.624	182.45
296.999	271.021
300.374	347.96
303.749	382.712
307.123	351.425
310.498	241.622
313.873	72.512
317.248	1.84839
320.623	0.960449
323.998	27.9734
327.372	87.0059
330.747	195.657
334.122	335.546
337.497	472.445
340.872	505.559
344.247	523.543
347.621	654.688
350.996	857.205
354.371	1018.25
357.746	1097.11
361.12	1030.88
364.495	886.646
367.87	812.889
371.245	789.903
374.62	699.981
377.995	669.92
381.369	672.494
384.744	569.597
388.119	411.983
391.494	261.046
394.869	130.696
398.243	61.6199
401.618	28.5674
404.993	9.76245
408.368	21.5725
411.743	11.2695
415.118	76.6865
418.492	161.002
421.867	219.918
425.242	295.224
428.617	287.006
431.992	231.581
435.366	156.434
438.741	71.259
442.116	8.81079
445.491	10.5024
448.866	30.9829
452.241	62.1985
455.615	41.4477
458.99	9.2373
462.365	13.0979
465.74	38.917
469.115	42.7583
472.49	45.0684
475.864	15.6138
479.239	32.4277
482.614	40.6663
485.989	68.6675
489.364	70.864
492.738	103.744
496.113	112.93
499.488	125.054
502.863	119.172
506.238	90.8486
509.613	83.7493
512.987	59.3655
516.362	36.8105
519.737	24.5867
523.112	5.34204
526.487	3.5669
529.861	8.70215
533.236	5.48584
536.611	3.19897
539.986	1.23975
543.361	0.425781
546.736	18.8889
550.11	19.2873
553.485	23.7417
556.86	25.627
560.235	25.4634
563.61	36.9468
566.984	30.5591
570.359	26.6882
573.734	40.2893
577.109	20.0825
580.484	47.425
583.859	52.5132
587.233	39.1838
590.608	59.0901
593.983	82.0417
597.358	63.2449
600.732	62.5837
604.107	67.5198
607.482	65.6553
610.857	67.8201
614.232	53.301
617.607	61.3066
620.981	54.8897
624.356	62.9756
627.731	48.5696
631.106	56.5256
634.481	53.0952
637.856	46.6841
641.23	46.7966
644.605	39.5864
647.98	39.7253
651.355	46.5657
654.73	33.2141
658.104	32.4111
661.479	35.5044
664.854	28.3545
668.229	20.9089
671.604	27.2947
674.979	13.3098
678.353	2.75659
681.728	1.11108
685.103	0.838379
688.478	2.99072
691.852	5.64575
695.227	1.23071
698.602	4.30103
701.977	0.116699
705.352	19.7185
708.727	31.1067
712.101	56.1562
715.476	69.2715
718.851	70.8157
722.226	76.4592
725.601	57.9912
728.976	60.2034
732.35	48.0935
735.725	64.2344
739.1	62.5991
742.475	69.762
745.85	47.1448
749.224	30.0586
752.599	34.3335
755.974	26.0278
759.349	15.3254
762.724	0.133057
766.098	15.5373
769.473	23.0012
772.848	27.7932
776.223	10.6985
779.598	107.536
782.973	314.996
786.347	604.306
789.722	1004.75
793.097	1560.62
796.472	2165.83
799.847	2367.09
803.221	2015.95
806.596	1549.74
809.971	1329.71
813.346	1358.23
816.721	1493.51
820.096	1532.23
823.47	1492.65
826.845	1710.02
830.22	2099.34
833.595	2420.92
836.97	2906.2
840.345	3778.76
843.719	4369.71
847.094	2939.68
850.469	2259.62
853.844	2595.1
857.219	2846.26
860.593	1562.5
863.968	894.639
867.343	656.437
870.718	586.986
874.093	588.607
877.467	410.385
880.842	240.752
884.217	166.467
887.592	117.592
890.967	96.2917
894.342	71.7175
897.716	48.6877
901.091	24.6365
904.466	11.5315
907.841	15.9182
911.216	12.8369
914.591	17.23
917.965	17.4153
921.34	14.3259
924.715	2.07764
928.09	5.28418
931.465	7.22266
934.839	5.36231
938.214	19.6404
941.589	20.9446
944.964	31.2754
948.339	33.6987
951.713	45.2004
955.088	48.5359
958.463	53.9541
961.838	53.5715
965.213	64.7092
968.587	68.2305
971.962	65.1211
975.337	66.7334
978.712	61.0515
982.087	44.4001
985.462	55.2422
988.836	41.4045
992.211	41.3547
995.586	39.6538
998.961	34.1719
1002.34	42.906
1005.71	37.9387
1009.09	40.1055
1012.46	32.6628
1015.84	32.0244
1019.21	30.0371
1022.59	26.6885
1025.96	23.0334
1029.33	38.4988
1032.71	27.0713
1036.08	20.7207
1039.46	16.7158
1042.83	23.2483
1046.21	6.43555
1049.58	9.29834
1052.96	12.3684
1056.33	4.43018
1059.71	2.04199
1063.08	8.32666
1066.46	4.03149
1069.83	6.85913
1073.21	4.82519
1076.58	3.06885
1079.96	6.59521
1083.33	2.94971
1086.71	7.23096
1090.08	3.70606
1093.46	10.0181
1096.83	6.44751
1100.2	13.6987
1103.58	15.4888
1106.95	15.2341
1110.33	31.0928
1113.7	32.3132
1117.08	17.8384
1120.45	1.8916
1123.83	6.85425
1127.2	3.75122
1130.58	5.52734
1133.95	0.239258
1137.33	1.57349
1140.7	9.8938
1144.08	24.5122
1147.45	12.0967
1150.83	13.04
1154.2	2.61255
1157.58	11.2117
1160.95	13.8154
1164.33	14.4424
1167.7	14.0637
1171.08	2.53516
1174.45	15.521
1177.83	11.9429
1181.2	9.85083
1184.58	17.9585
1187.95	14.3088
1191.33	16.8252
1194.7	4.89917
1198.08	2.79541
1201.45	0.675293
1204.83	6.00586
1208.2	6.82397
1211.57	0.920654
1214.95	1.64282
1218.32	1.76709
1221.7	9.41089
1225.07	6.89087
1228.45	1.14404
1231.82	5.10571
1235.2	6.76856
1238.57	9.9353
1241.95	2.61377
1245.32	7.88477
1248.7	10.4963
1252.07	13.0339
1255.45	19.2231
1258.82	15.2131
1262.2	6.98999
1265.57	19.9993
1268.95	12.4128
1272.32	9.64209
1275.7	8.21704
1279.07	17.3135
1282.44	6.18091
1285.82	0.148193
