Measurement: Raman, 532 nm, unoriented, Raman Data Processed
Mineral: Vlasovite
Rruff sample: R060913
Ideal chemistry: Na_2_ZrSi_4_O_11_
Locality: Kipawa complex, Quebec, Canada
Source: Royal Ontario Museum
Description: Honey yellow single crystal fragment
Raman shift (cm-1)	intensity
154.307	0
157.2	15.812
160.092	38.0098
162.985	130.72
165.878	184.882
168.77	91.2729
171.663	72.1431
174.556	164.849
177.448	377.301
180.341	481.924
183.234	630.768
186.127	761.43
189.019	841.725
191.912	905.75
194.805	1118.7
197.697	1110.43
200.59	1023.25
203.483	1046.62
206.375	704.862
209.268	467.775
212.161	239.269
215.054	173.872
217.946	81.0332
220.839	31.3516
223.732	63.5645
226.624	135.898
229.517	108.51
232.41	109.029
235.303	91.3809
238.195	45.9727
241.088	34.0908
243.981	251.544
246.873	554.499
249.766	881.924
252.659	1394.46
255.551	2046.9
258.444	2984.34
261.337	3982.47
264.229	4642.83
267.122	4345.94
270.015	3619.6
272.908	3061.82
275.8	2909.76
278.693	3192.43
281.586	3906.51
284.478	5424.45
287.371	8280.75
290.264	12733.8
293.156	18813.4
296.049	26309
298.942	29921.9
301.834	22430.6
304.727	13458.8
307.62	8189.2
310.513	5528.4
313.405	4396.76
316.298	4012.39
319.191	4362.62
322.083	5099.47
324.976	6178.74
327.869	6622.23
330.762	5956.65
333.654	4348.23
336.547	3233.13
339.44	2484.01
342.332	2430.24
345.225	2764.26
348.118	3808.07
351.01	5195.06
353.903	6551.47
356.796	6685.66
359.688	5192.85
362.581	3239.76
365.474	1846.28
368.366	947.041
371.259	484.452
374.152	113.032
377.045	-8.59283
379.937	-78.0288
382.83	-95.9998
385.723	-65.5796
388.615	1.58632
391.508	95.9355
394.401	386.019
397.293	1145.63
400.186	2076.05
403.079	3680.44
405.972	5957.65
408.864	7713.67
411.757	9625.2
414.65	12568.6
417.542	14975
420.435	13499.3
423.328	8609.48
426.221	4918.05
429.113	2958.04
432.006	2020.34
434.899	1743.44
437.791	1733.88
440.684	2098.37
443.577	2965.02
446.469	4546.24
449.362	6932.57
452.255	9439.82
455.147	9364.06
458.04	6388.5
460.933	3765.11
463.826	2241.02
466.718	1325.38
469.611	802.69
472.504	503.28
475.396	313.578
478.289	319.555
481.182	308.736
484.074	659.824
486.967	1002.9
489.86	1385.21
492.752	1612.17
495.645	1655.27
498.538	1110.78
501.431	530.438
504.323	141.637
507.216	73.584
510.109	193.579
513.001	35.3154
515.894	297.296
518.787	743.045
521.679	1493.37
524.572	2717.76
527.465	4444.68
530.358	7032.31
533.25	10502.4
536.143	13851.6
539.036	12903.4
541.928	8510.1
544.821	5232
547.714	3194.4
550.606	2037.45
553.499	1272.95
556.392	829.672
559.284	514.893
562.177	303.261
565.07	174.054
567.963	66.1103
570.855	47.0684
573.748	31.3369
576.641	12.9297
579.533	35.6963
582.426	219.047
585.319	424.523
588.212	743.516
591.104	1338.31
593.997	2039.57
596.89	3111.12
599.782	4243.95
602.675	4566.77
605.568	3496.48
608.46	2296.23
611.353	1481.17
614.246	970.85
617.139	671.937
620.031	477.039
622.924	361.626
625.817	225.451
628.709	237.473
631.602	65.0176
634.495	23.0283
637.387	66.6768
640.28	43.5684
643.173	30.1123
646.066	3.32031
648.958	119.974
651.851	66.2041
654.744	114.012
657.636	117.955
660.529	2.68164
663.422	47.8506
666.314	18.7764
669.207	147.727
672.1	155.767
674.992	24.4727
677.885	10.7725
680.778	20.915
683.67	70.8769
686.563	85.6025
689.456	91.6856
692.349	104.76
695.241	48.1445
698.134	76.7598
701.027	43.2666
703.919	90.6738
706.812	22.8574
709.705	93.8643
712.597	45.8223
715.49	48.8711
718.383	109.25
721.276	119.757
724.168	221.801
727.061	236.838
729.954	247.821
732.846	323.072
735.739	411.72
738.632	483.825
741.524	493.228
744.417	402.187
747.31	323.757
750.203	193.377
753.095	29.0566
755.988	192.785
758.881	129.418
761.773	77.5147
764.666	82.6416
767.559	45.8164
770.452	178.311
773.344	106.367
776.237	124.123
779.13	140.326
782.022	96.2148
784.915	87.3955
787.808	197.445
790.7	185.799
793.593	289.106
796.486	290.953
799.378	349.591
802.271	353.266
805.164	415.372
808.057	397.843
810.949	565.216
813.842	719.39
816.735	777.213
819.627	1130.39
822.52	1506.41
825.413	1779.49
828.305	1485.96
831.198	887.094
834.091	518.948
836.984	462.897
839.876	294.988
842.769	178.929
845.662	199.703
848.554	240.466
851.447	14.0381
854.34	19.1172
857.232	36.9375
860.125	0.461914
863.018	79.2842
865.91	0.057617
868.803	95.7998
871.696	61.0068
874.589	71.6006
877.481	76.7031
880.374	24.3564
883.267	56.4443
886.159	10.7568
889.052	115.276
891.945	151.224
894.837	214.503
897.73	376.981
900.623	339.943
903.516	442.396
906.408	482.253
909.301	637.956
912.194	850.133
915.086	1036.19
917.979	1300.93
920.872	1735.48
923.764	2415.14
926.657	3151.51
929.55	4058.74
932.442	5192.78
935.335	6875.72
938.228	9320.09
941.121	12875.5
944.013	17799.6
946.906	24486.6
949.799	33283
952.691	40871.9
955.584	38714.5
958.477	27055.9
961.37	17083.4
964.262	11590.7
967.155	8551.14
970.048	7440.78
972.94	7133.66
975.833	8049.97
978.726	9839.19
981.618	12784.8
984.511	16615.1
987.404	18739.8
990.296	15801.5
993.189	10441.9
996.082	6691.76
998.975	4508.23
1001.87	3180.56
1004.76	2244.79
1007.65	1700.74
1010.54	1267.54
1013.44	891.584
1016.33	804.928
1019.22	513.227
1022.12	293
1025.01	225.327
1027.9	39.2588
1030.79	7.63574
1033.69	162.377
1036.58	99.4375
1039.47	64.2227
1042.37	86.7178
1045.26	135.56
1048.15	119.52
1051.04	287.565
1053.94	627.173
1056.83	961.348
1059.72	1498.39
1062.61	2104.11
1065.51	3057.49
1068.4	4409.46
1071.29	6471.19
1074.18	8571.59
1077.08	9392.53
1079.97	8502.99
1082.86	6579.65
1085.76	4910.44
1088.65	3789.61
1091.54	2984.66
1094.43	2521.74
1097.33	2095.12
1100.22	1767.31
1103.11	1251.98
1106	990.822
1108.9	658.223
1111.79	489.662
1114.68	371.032
1117.58	289.532
1120.47	150.837
1123.36	38.9316
1126.25	15.3574
1129.15	129.648
1132.04	163.996
1134.93	100.407
1137.82	124.688
1140.72	60.1924
1143.61	58.5312
1146.5	12.7783
1149.39	12.0264
1152.29	13.5264
1155.18	81.9014
1158.07	77.8154
1160.97	48.1016
1163.86	85.5361
1166.75	40.6045
1169.64	40.7607
1172.54	14.1514
1175.43	91.5625
1178.32	182.373
1181.21	114.644
1184.11	228.739
1187	80.8838
1189.89	113.471
1192.79	47.2734
1195.68	85.5762
1198.57	98.2002
1201.46	122.43
1204.36	95.9727
1207.25	93.1894
1210.14	106.642
1213.03	217.739
1215.93	113.653
1218.82	73.9082
1221.71	91.4297
1224.61	138.518
1227.5	148.429
1230.39	127.747
1233.28	201.841
1236.18	183.605
1239.07	227.91
1241.96	190.953
1244.85	310.764
1247.75	202.993
1250.64	203.688
1253.53	111.119
1256.42	125.726
1259.32	181.184
1262.21	88.6094
1265.1	8.34473
1267.99	126.96
1270.89	121.055
1273.78	264.266
1276.67	163.67
1279.57	45.3076
1282.46	20.9238
1285.35	0
