Measurement: Raman, 785 nm, unoriented, Raman Data Processed
Mineral: Vlasovite
Rruff sample: R060913
Ideal chemistry: Na_2_ZrSi_4_O_11_
Locality: Kipawa complex, Quebec, Canada
Source: Royal Ontario Museum
Description: Honey yellow single crystal fragment
Raman shift (cm-1)	intensity
182.274	0
185.167	39.3691
188.06	259.094
190.952	527.156
193.845	624.326
196.738	727.766
199.63	1082.02
202.523	988.422
205.416	678.832
208.308	301.967
211.201	23.6074
214.094	24.6992
216.987	13.2695
219.879	124.731
222.772	273.566
225.665	44.0977
228.557	14.4258
231.45	15.5977
234.343	219.914
237.235	329.988
240.128	635.406
243.021	806.848
245.913	933.262
248.806	821.988
251.699	1420.11
254.592	2056.66
257.484	2663.67
260.377	3282.84
263.27	3621.3
266.162	3601.7
269.055	2952
271.948	2496.23
274.841	2117.14
277.733	2260.82
280.626	2634.56
283.519	3121.68
286.411	3884.41
289.304	5196.84
292.197	7056.99
295.089	9587.64
297.982	11144.3
300.875	9297.74
303.767	5944.66
306.66	4099.92
309.553	2740.23
312.446	1937.91
315.338	1536.28
318.231	1506.97
321.124	1830.5
324.016	2173.45
326.909	2459.18
329.802	2359.54
332.695	1598.92
335.587	897.129
338.48	274.203
341.373	95.2539
344.265	394.285
347.158	704.523
350.051	1392.43
352.943	2096.26
355.836	2106.39
358.729	1391.46
361.622	574.777
364.514	19.6836
367.407	108.207
370.3	47.6562
373.192	80.7773
376.085	199.754
378.978	190.086
381.87	87.0469
384.763	63.3359
387.656	65.3789
390.549	294.348
393.441	905.949
396.334	1249
399.227	1634.52
402.119	2350.38
405.012	3127.71
407.905	3916.86
410.798	4542.73
413.69	6122.15
416.583	7495
419.476	7361.83
422.368	4974.5
425.261	2955.26
428.154	1773.87
431.046	1070.27
433.939	792.84
436.832	631.668
439.724	716.469
442.617	957.719
445.51	1582.03
448.403	2247.5
451.295	2967.1
454.188	3013.41
457.081	2293.7
459.973	1279.35
462.866	764.988
465.759	410.102
468.651	283.981
471.544	279.969
474.437	26.6367
477.33	133.18
480.222	24.0312
483.115	17.0547
486.008	254.363
488.9	541.488
491.793	801.945
494.686	742.654
497.579	529.354
500.471	294.047
503.364	16.959
506.257	40.4336
509.149	235.627
512.042	297.535
514.935	356.477
517.827	640.955
520.72	837.033
523.613	1213.69
526.505	2000.12
529.398	3085.1
532.291	4481.27
535.184	6045.96
538.076	6020.17
540.969	4312.37
543.862	2562.55
546.754	1816.83
549.647	952.221
552.54	700.207
555.433	500.795
558.325	392.772
561.218	355.24
564.111	412.449
567.003	102.744
569.896	107.91
572.789	23.3359
575.681	36.0117
578.574	27.1406
581.467	119.76
584.36	179.92
587.252	323.184
590.145	534.561
593.038	739.945
595.93	1244.9
598.823	1758.85
601.716	2052.91
604.609	1720.86
607.501	1232.41
610.394	786.379
613.287	650.629
616.179	341.836
619.072	427.094
621.965	295.727
624.857	322.488
627.75	315.562
630.643	292.066
633.535	54.0117
636.428	169.127
639.321	196.25
642.214	77.7617
645.106	130.67
647.999	8.5918
650.892	39.5879
653.784	123.764
656.677	179.682
659.57	174.807
662.462	47.7188
665.355	40.3281
668.248	35.5684
671.141	40.041
674.033	224.715
676.926	182.531
679.819	182.902
682.711	65.5586
685.604	45.7676
688.497	16.8125
691.389	68.3984
694.282	93.7871
697.175	407.348
700.068	158.738
702.96	219.725
705.853	131.357
708.746	60.5469
711.638	9.47266
714.531	50.2129
717.424	220.262
720.317	303.217
723.209	228.357
726.102	76.9121
728.995	219.065
731.887	123.062
734.78	226.459
737.673	311.875
740.565	334.551
743.458	339.32
746.351	261.023
749.244	259.961
752.136	275.934
755.029	229.059
757.922	123.078
760.814	15.4648
763.707	120.039
766.6	79.1016
769.492	148.062
772.385	202.086
775.278	109.801
778.17	19.7188
781.063	61.4062
783.956	75.1211
786.849	94.668
789.741	383.879
792.634	279.809
795.527	230.254
798.419	135.359
801.312	216.894
804.205	206.043
807.097	209.367
809.99	241.809
812.883	473.344
815.776	519.398
818.668	614.531
821.561	591.156
824.454	826.875
827.346	741.969
830.239	454.391
833.132	336.551
836.024	308.84
838.917	215.625
841.81	33.8906
844.703	125.34
847.595	149.094
850.488	90.6094
853.381	124.684
856.273	149.457
859.166	133.234
862.059	15.5664
864.952	33.5859
867.844	33.3789
870.737	80.3984
873.63	117.324
876.522	28.0859
879.415	69.4023
882.308	105.121
885.2	48.5547
888.093	60.0469
890.986	268.148
893.879	196.109
896.771	88.9883
899.664	42.207
902.557	176.43
905.449	202.547
908.342	344.695
911.235	373.394
914.127	432.473
917.02	403.856
919.913	327.598
922.806	540.711
925.698	683.188
928.591	1027.82
931.484	1325.76
934.376	1788.44
937.269	2110.55
940.162	2862.75
943.054	4026.95
945.947	5885.48
948.84	8345.6
951.732	10839.4
954.625	11109.5
957.518	8237.28
960.411	5325.44
963.303	3525.28
966.196	2383.27
969.089	1888.99
971.981	1614.14
974.874	1523.91
977.767	1907.81
980.659	2545.11
983.552	3335.59
986.445	4023.11
989.338	3617.5
992.23	2405.23
995.123	1488.76
998.016	976.977
1000.91	780.113
1003.8	666.125
1006.69	344.617
1009.59	370.668
1012.48	222.293
1015.37	384.262
1018.26	92.0859
1021.16	44.3789
1024.05	7.21875
1026.94	63.1875
1029.84	50.0234
1032.73	46.7031
1035.62	177.977
1038.51	16.5039
1041.41	56.9609
1044.3	89.5547
1047.19	26.8125
1050.08	54.7773
1052.98	134.273
1055.87	388.559
1058.76	493.137
1061.65	540.844
1064.55	467.398
1067.44	962.543
1070.33	1515.82
1073.23	2234.28
1076.12	2814.82
1079.01	2620.67
1081.9	1982.95
1084.8	1321.92
1087.69	961.066
1090.58	770.41
1093.47	688.941
1096.37	857.883
1099.26	484.434
1102.15	522.043
1105.05	208.981
1107.94	174.32
1110.83	175.883
1113.72	180.856
1116.62	319.348
1119.51	267.617
1122.4	203.137
1125.3	278.375
1128.19	407.672
1131.08	192.625
1133.97	125.941
1136.87	134.781
1139.76	276.789
1142.65	194.551
1145.54	256.711
1148.44	96.0078
1151.33	226.434
1154.22	286.438
1157.11	236.074
1160.01	271.102
1162.9	168.473
1165.79	148.785
1168.68	195.344
1171.58	295.965
1174.47	118.109
1177.36	191.738
1180.26	8.03516
1183.15	71.3047
1186.04	15.3867
1188.93	249.668
1191.83	40.0586
1194.72	51.7969
1197.61	264.988
1200.51	479.641
1203.4	289.586
1206.29	141.191
1209.18	204.43
1212.08	200.301
1214.97	380.242
1217.86	440.336
1220.75	359.875
1223.65	384.352
1226.54	278.106
1229.43	13.6523
1232.32	83.3984
1235.22	139.934
1238.11	138.234
1241	112.231
1243.89	146.695
1246.79	0
