Measurement: Raman, 780 nm, unoriented, Raman Data Processed
Mineral: Volborthite
Rruff sample: R050216
Ideal chemistry: Cu_3_V_2_O_7_(OH)_2_2H_2_O
Locality: Monument Valley, White Canyon-Monument Valley District, Apache & Navajo Counties, Arizona, USA
Source: Marcus Origlieri
Description: Green rosettelike aggregate of hexagonal scaly crystals
Measured chemistry: Cu_3.00_V_2.00_O_7_(OH)_2_Â·2H_2_O
Raman shift (cm-1)	intensity
149.725	0
152.618	0.672862
155.511	0.158375
158.404	0.491596
161.296	0.764854
164.189	0.457073
167.082	0.832585
169.974	1.53772
172.867	1.18348
175.76	1.43002
178.652	0.915193
181.545	1.30975
184.438	0.600078
187.331	0.010533
190.223	0.271667
193.116	0.419937
196.009	0.16
198.901	0.391834
201.794	0.183115
204.687	0.002549
207.579	0.067505
210.472	0.232427
213.365	0.792859
216.257	0.604504
219.15	0.412365
222.043	1.40102
224.936	1.37986
227.828	1.75795
230.721	2.59381
233.614	2.33662
236.506	2.80922
239.399	2.72189
242.292	2.51436
245.185	1.67734
248.077	1.3717
250.97	0.985578
253.863	0.299478
256.755	0.385767
259.648	0.408014
262.541	0.034879
265.433	0.420218
268.326	0.28706
271.219	0.407937
274.111	1.06167
277.004	1.78553
279.897	2.43332
282.79	3.84877
285.682	4.83376
288.575	6.57177
291.468	7.29384
294.36	8.19582
297.253	9.46057
300.146	9.37111
303.038	9.07109
305.931	8.6574
308.824	7.58071
311.717	6.37761
314.609	6.00432
317.502	5.46733
320.395	5.17689
323.287	4.73369
326.18	4.52759
329.073	4.38923
331.966	4.18616
334.858	4.51744
337.751	3.87334
340.644	3.4735
343.536	3.17242
346.429	2.94457
349.322	2.8806
352.214	1.99038
355.107	1.66676
358	0.963395
360.892	0.702405
363.785	0.668584
366.678	0.396693
369.571	0.590782
372.463	0.014173
375.356	0.252976
378.249	0.494821
381.141	0.108216
384.034	0.174553
386.927	0.429305
389.82	0.063495
392.712	0.395856
395.605	0.270333
398.498	0.119216
401.39	0.041656
404.283	0.022285
407.176	0.409149
410.068	0.340094
412.961	0.092077
415.854	0.166196
418.747	0.446997
421.639	0.896276
424.532	1.05027
427.425	0.835035
430.317	1.05661
433.21	1.26679
436.103	1.38384
438.995	1.3459
441.888	1.4712
444.781	1.52378
447.673	1.70827
450.566	1.21124
453.459	1.51319
456.352	1.92782
459.244	2.20905
462.137	2.35086
465.03	2.07095
467.922	1.9457
470.815	1.66542
473.708	1.04517
476.601	1.3148
479.493	1.24159
482.386	1.07346
485.279	0.759343
488.171	1.05205
491.064	0.821269
493.957	0.664187
496.849	0.34525
499.742	0.883241
502.635	0.687288
505.527	0.445647
508.42	0.283778
511.313	0.404464
514.206	0.102059
517.098	0.34646
519.991	0.303418
522.884	0.263149
525.776	0.121946
528.669	0.29664
531.562	0.38884
534.455	0.034825
537.347	0.163026
540.24	0.06715
543.133	0.325875
546.025	0.138463
548.918	0.330766
551.811	0.655695
554.703	0.273113
557.596	0.379737
560.489	0.008307
563.381	0.052066
566.274	0.207129
569.167	0.412623
572.06	0.55634
574.952	0.154477
577.845	0.408695
580.738	0.691674
583.63	0.417243
586.523	0.166352
589.416	0.494307
592.308	0.417837
595.201	0.232187
598.094	0.329225
600.986	0.302038
603.879	0.091111
606.772	0.507617
609.665	0.043592
612.557	0.442177
615.45	0.113885
618.343	0.124361
621.235	0.0453
624.128	0.405483
627.021	0.279702
629.913	0.276262
632.806	0.367802
635.699	0.407372
638.592	0.519325
641.484	0.67844
644.377	0.522353
647.27	0.341048
650.162	0.688128
653.055	0.450694
655.948	0.142186
658.841	0.721962
661.733	0.857159
664.626	0.146675
667.519	0.394885
670.411	0.432074
673.304	0.631459
676.197	0.100162
679.089	0.576242
681.982	0.510843
684.875	0.229513
687.768	0.188674
690.66	0.448165
693.553	0.131715
696.446	0.424885
699.338	0.150429
702.231	0.075758
705.124	0.32933
708.016	0.464217
710.909	0.02231
713.802	0.571129
716.694	0.593086
719.587	0.066501
722.48	0.48195
725.373	1.08365
728.265	0.611516
731.158	1.28885
734.051	1.12014
736.943	1.78164
739.836	1.82817
742.729	1.56479
745.621	1.98312
748.514	0.914948
751.407	0.947408
754.3	0.984598
757.192	0.547843
760.085	0.331859
762.978	0.434541
765.87	0.182773
768.763	0.267645
771.656	0.199262
774.548	0.105345
777.441	0.001483
780.334	0.012755
783.227	0.448672
786.119	1.20711
789.012	2.10201
791.905	1.96842
794.797	3.63438
797.69	4.90082
800.583	6.76659
803.476	9.44707
806.368	10.9229
809.261	12.4212
812.154	13.8364
815.046	13.5211
817.939	13.1819
820.832	11.0435
823.724	8.96734
826.617	7.22626
829.51	5.70834
832.403	4.70256
835.295	4.5856
838.188	5.40738
841.081	7.29664
843.973	8.81905
846.866	10.7645
849.759	11.9233
852.651	11.8991
855.544	10.6272
858.437	8.32882
861.33	6.3574
864.222	5.39605
867.115	5.76628
870.008	6.4116
872.9	7.94585
875.793	10.2344
878.686	12.0252
881.578	12.5313
884.471	12.1834
887.364	9.10091
890.256	6.99737
893.149	4.35791
896.042	2.23122
898.935	1.16664
901.827	0.672215
904.72	0.344906
907.613	0.278117
910.505	0.008588
913.398	0.103056
916.291	0.147453
919.183	0.011944
922.076	0.120224
924.969	0.013947
927.862	0.222053
930.754	0.0424
933.647	0.222524
936.54	0.150249
939.432	0.181316
942.325	0.511675
945.218	0.304662
948.111	0.1872
951.003	0.473301
953.896	0.090365
956.789	0.560826
959.681	0.558402
962.574	0.577706
965.467	0.266956
968.359	0.433853
971.252	0.495059
974.145	0.376891
977.038	0.662632
979.93	0.793169
982.823	0.810602
985.716	0.69147
988.608	0.510621
991.501	0.44512
994.394	0.450328
997.286	0.687313
1000.18	0.389698
1003.07	0.868141
1005.96	0.588914
1008.86	0.590781
1011.75	0.667396
1014.64	0.517226
1017.53	0.174166
1020.43	0.287848
1023.32	0.513892
1026.21	0.948511
1029.11	0.352855
1032	0.698026
1034.89	0.392055
1037.78	0.598985
1040.68	0.245012
1043.57	0.541027
1046.46	0.673368
1049.36	0.674162
1052.25	0.642724
1055.14	0.139645
1058.03	0.244373
1060.93	0.382969
1063.82	0.570225
1066.71	0.382284
1069.6	0.165315
1072.5	0.139441
1075.39	0.59248
1078.28	0.385261
1081.17	0.197938
1084.07	0.014662
1086.96	0.511522
1089.85	0.53029
1092.74	0.395105
1095.64	0.145216
1098.53	0.544406
1101.42	0.264423
1104.32	0.177867
1107.21	0.462548
1110.1	0.104309
1112.99	0.040471
1115.89	0.506186
1118.78	0.363564
1121.67	0.011954
1124.57	0.111842
1127.46	0.007068
1130.35	0.209529
1133.24	0.653675
1136.14	0.734236
1139.03	0.533888
1141.92	0.433899
1144.81	0.028809
1147.71	0.309781
1150.6	0.424656
1153.49	0.461621
1156.38	0.04414
1159.28	0.489571
1162.17	0.119075
1165.06	0.439849
1167.96	0.149974
1170.85	0.039682
1173.74	0.694954
1176.63	0.085032
1179.53	0.421224
1182.42	0.522315
1185.31	0.349604
1188.2	0.412531
1191.1	0.087945
1193.99	0.541472
1196.88	0.505874
1199.78	0.438029
1202.67	0.113321
1205.56	0.33055
1208.45	0.884912
1211.35	0.030514
1214.24	0.60471
1217.13	0.515425
1220.02	0.351402
1222.92	0.224154
1225.81	0.48603
1228.7	0.322695
1231.6	0.70764
1234.49	0.071335
1237.38	0.302814
1240.27	0.142773
1243.17	0.586132
1246.06	0.019462
1248.95	0.230382
1251.84	0.650135
1254.74	0.375055
1257.63	0.674036
1260.52	0.991828
1263.41	0.387883
1266.31	0.102824
1269.2	0.193332
1272.09	0.817815
1274.99	0.533879
1277.88	0.128152
1280.77	0.587095
1283.66	0.707483
