Measurement: Raman, 532 nm, unoriented, Raman Data Processed
Mineral: Volborthite
Rruff sample: R050216
Ideal chemistry: Cu_3_V_2_O_7_(OH)_2_2H_2_O
Locality: Monument Valley, White Canyon-Monument Valley District, Apache & Navajo Counties, Arizona, USA
Source: Marcus Origlieri
Description: Green rosettelike aggregate of hexagonal scaly crystals
Measured chemistry: Cu_3.00_V_2.00_O_7_(OH)_2_Â·2H_2_O
Raman shift (cm-1)	intensity
146.297	0
149.19	1.82266
152.082	3.90683
154.975	0.148834
157.868	5.24933
160.76	9.59183
163.653	14.8536
166.546	19.1949
169.438	25.3457
172.331	41.6383
175.224	52.2376
178.117	61.8661
181.009	57.1212
183.902	43.3485
186.795	33.5751
189.687	33.4583
192.58	21.3689
195.473	12.3472
198.365	6.64764
201.258	1.06491
204.151	2.47418
207.043	1.15228
209.936	1.26871
212.829	2.46564
215.722	8.78146
218.614	8.02936
221.507	15.9425
224.4	23.5188
227.292	35.1677
230.185	46.4154
233.078	64.8544
235.97	88.3705
238.863	105.749
241.756	126.148
244.649	130.279
247.541	129.504
250.434	103.506
253.327	72.636
256.219	48.9102
259.112	23.8117
262.005	10.7718
264.897	3.39932
267.79	1.26758
270.683	2.09784
273.576	1.67612
276.468	2.41305
279.361	7.42905
282.254	22.0995
285.146	35.4262
288.039	62.4704
290.932	89.6179
293.825	123.162
296.717	153.548
299.61	192.689
302.503	228.254
305.395	260.026
308.288	262.51
311.181	243.945
314.073	206.853
316.966	180.841
319.859	159.704
322.752	147.165
325.644	146.672
328.537	155.164
331.43	175.258
334.322	182.051
337.215	177.323
340.108	167.764
343	161.087
345.893	156.129
348.786	151.269
351.678	138.059
354.571	112.835
357.464	91.8577
360.356	65.8658
363.249	50.3942
366.142	42.4524
369.035	34.3486
371.927	27.0374
374.82	16.0744
377.713	14.5888
380.605	6.00635
383.498	0.700882
386.391	0.506668
389.284	0.759262
392.176	0.825119
395.069	1.30043
397.962	1.25474
400.854	1.06981
403.747	1.25107
406.64	6.13147
409.532	4.77167
412.425	11.7071
415.318	18.8237
418.211	20.3222
421.103	31.5335
423.996	34.2278
426.889	46.99
429.781	65.5687
432.674	77.8556
435.567	94.4367
438.459	102.771
441.352	109.317
444.245	112.184
447.137	110.196
450.03	106.69
452.923	101.564
455.816	105.255
458.708	114.428
461.601	121.406
464.494	132.192
467.386	142.609
470.279	154.181
473.172	157.435
476.065	156.61
478.957	145.214
481.85	121.988
484.743	92.6047
487.635	76.6437
490.528	68.9198
493.421	61.608
496.313	53.5878
499.206	48.5065
502.099	45.941
504.991	47.0161
507.884	44.5638
510.777	43.4982
513.67	42.3907
516.562	35.2791
519.455	25.7412
522.348	16.0546
525.24	12.556
528.133	6.25388
531.026	3.56867
533.918	2.46735
536.811	1.37018
539.704	1.85454
542.597	0.358658
545.489	0.057022
548.382	5.19743
551.275	0.143387
554.167	1.97903
557.06	0.529053
559.953	3.34296
562.846	2.40962
565.738	3.37068
568.631	0.950562
571.524	2.05559
574.416	0.486404
577.309	3.16122
580.202	0.445145
583.094	2.19102
585.987	4.45828
588.88	1.52486
591.773	2.52751
594.665	2.35951
597.558	4.22731
600.451	6.28429
603.343	4.29027
606.236	7.41821
609.129	4.02078
612.021	6.67842
614.914	6.22995
617.807	4.08875
620.699	6.11855
623.592	5.68041
626.485	7.31447
629.378	8.69038
632.27	7.12595
635.163	9.34848
638.056	9.26416
640.948	8.31337
643.841	9.40379
646.734	10.2899
649.626	13.0803
652.519	12.1356
655.412	10.1192
658.305	16.4679
661.197	12.4125
664.09	15.3161
666.983	12.4068
669.875	13.2535
672.768	11.8682
675.661	12.329
678.553	9.79135
681.446	8.86285
684.339	10.8362
687.232	7.58977
690.124	7.02316
693.017	6.80485
695.91	6.05513
698.802	2.97717
701.695	3.91476
704.588	0.476196
707.481	2.85709
710.373	1.38965
713.266	0.69278
716.159	8.16586
719.051	9.86929
721.944	18.5446
724.837	27.6634
727.729	39.9402
730.622	55.5141
733.515	75.5859
736.408	97.6787
739.3	135.924
742.193	173.264
745.086	199.18
747.978	217.122
750.871	207.609
753.764	179.072
756.656	131.799
759.549	90.1055
762.442	51.5132
765.335	22.1664
768.227	4.28064
771.12	11.5598
774.013	16.9722
776.905	15.2631
779.798	8.52197
782.691	2.27615
785.583	17.1179
788.476	43.1613
791.369	79.8637
794.261	138.469
797.154	207.124
800.047	302.647
802.939	413.836
805.832	552.306
808.725	681.811
811.618	789.684
814.51	879.051
817.403	919.043
820.296	907.619
823.188	830.943
826.081	686.372
828.974	512.876
831.866	358.231
834.759	254.693
837.652	196.544
840.545	170.776
843.437	184.683
846.33	238.873
849.223	324.092
852.115	439.031
855.008	583.829
857.901	678.941
860.793	601.731
863.686	458.316
866.579	364.128
869.472	356.916
872.364	439.752
875.257	596.284
878.15	816.428
881.042	1111.72
883.935	1501.97
886.828	1872.92
889.721	1852.61
892.613	1353.44
895.506	816.55
898.399	493.228
901.291	305.863
904.184	189.379
907.077	124.923
909.969	78.1806
912.862	54.0821
915.755	26.7841
918.648	16.7632
921.54	4.83832
924.433	3.90265
927.326	3.69559
930.218	5.27481
933.111	6.61404
936.004	7.08554
938.896	6.23706
941.789	8.09973
944.682	0.276276
947.574	0.67868
950.467	1.74878
953.36	1.83499
956.253	5.68205
959.145	8.08098
962.038	11.0156
964.931	12.2081
967.823	17.9227
970.716	16.6482
973.609	20.4859
976.501	19.2934
979.394	23.0944
982.287	29.2145
985.18	26.0622
988.072	25.8867
990.965	27.7918
993.858	25.4872
996.75	26.8737
999.643	22.9318
1002.54	25.1171
1005.43	21.6838
1008.32	19.5833
1011.21	22.81
1014.11	21.6609
1017	16.9439
1019.89	18.8453
1022.78	18.7849
1025.68	15.2077
1028.57	15.7424
1031.46	15.9144
1034.36	13.7321
1037.25	14.3288
1040.14	13.511
1043.03	14.6132
1045.93	9.47755
1048.82	11.6013
1051.71	11.1006
1054.6	7.69937
1057.5	11.1628
1060.39	6.34138
1063.28	8.15665
1066.17	8.79495
1069.07	4.0685
1071.96	4.88901
1074.85	5.85887
1077.75	4.31085
1080.64	0.774231
1083.53	4.21651
1086.42	1.75153
1089.32	3.71294
1092.21	0.559738
1095.1	4.3383
1097.99	2.04185
1100.89	9.04332
1103.78	3.99589
1106.67	2.45262
1109.57	2.18185
1112.46	0.295609
1115.35	2.30086
1118.24	3.24783
1121.14	2.15759
1124.03	2.92418
1126.92	0.806702
1129.82	2.06471
1132.71	0.256073
1135.6	1.45012
1138.49	2.11107
1141.38	0.252335
1144.28	0.289825
1147.17	0.839478
1150.06	1.9503
1152.96	1.41922
1155.85	1.87738
1158.74	6.58719
1161.63	1.06897
1164.53	1.69186
1167.42	3.44991
1170.31	0.777496
1173.2	2.5549
1176.1	3.88525
1178.99	4.63901
1181.88	2.25821
1184.78	3.30424
1187.67	1.78139
1190.56	5.55434
1193.45	4.49425
1196.35	5.46143
1199.24	4.65913
1202.13	2.36353
1205.03	6.5762
1207.92	1.67828
1210.81	2.28867
1213.7	4.96306
1216.6	4.75424
1219.49	6.9818
1222.38	4.44446
1225.27	5.70929
1228.17	6.32095
1231.06	5.46228
1233.95	4.79958
1236.84	6.56036
1239.74	4.90655
1242.63	5.39978
1245.52	1.94093
1248.41	2.51169
1251.31	0.327988
1254.2	0.639175
1257.09	4.34763
1259.99	1.8082
1262.88	3.35995
1265.77	4.29437
1268.66	2.70406
1271.56	3.65755
1274.45	3.52515
1277.34	0.308868
1280.23	6.71272
1283.13	1.53325
1286.02	2.55991
1288.91	0.233475
