Measurement: Raman, 532 nm, unoriented, Raman Data Processed
Mineral: Volborthite
Rruff sample: R070710
Ideal chemistry: Cu_3_V_2_O_7_(OH)_2_2H_2_O
Locality: Newmont Gold mine, Carlin District, Elko County, Nevada,  USA
Source: Michael Scott
Description: Clusters of olive to yellowish green pseudohexagonal crystals
Raman shift (cm-1)	intensity
109.685	0
113.06	23.2071
116.435	98.4099
119.81	153.921
123.184	173.557
126.559	162.105
129.934	161.053
133.309	157.766
136.684	130.657
140.059	92.5554
143.433	66.6479
146.808	51.8499
150.183	35.0815
153.558	32.3443
156.933	16.435
160.308	12.0732
163.682	1.84482
167.057	4.22852
170.432	3.56015
173.807	3.42258
177.182	0.48349
180.556	4.28018
183.931	3.83344
187.306	1.02304
190.681	4.47189
194.056	3.7023
197.43	2.14145
200.805	9.10098
204.18	19.3567
207.555	40.3444
210.93	51.1959
214.304	74.7037
217.679	99.2679
221.054	137.869
224.429	193.626
227.804	257.779
231.179	338.144
234.553	426.011
237.928	517.217
241.303	591.702
244.678	600.312
248.053	502.581
251.428	367.438
254.802	246.922
258.177	159.971
261.552	95.424
264.927	52.3129
268.302	23.4678
271.676	8.63013
275.051	3.12955
278.426	3.9346
281.801	5.63351
285.176	11.4225
288.55	20.1704
291.925	40.3644
295.3	60.4039
298.675	80.1284
302.05	101.461
305.425	121.02
308.799	127.707
312.174	130.818
315.549	138.905
318.924	145.804
322.299	166.622
325.673	200.03
329.048	251.977
332.423	316.854
335.798	385.643
339.173	460.504
342.548	519.886
345.922	548.079
349.297	517.151
352.672	427.461
356.047	313.358
359.422	224.307
362.796	165.632
366.171	133.478
369.546	92.1262
372.921	53.2873
376.296	26.25
379.671	8.45523
383.045	2.05527
386.42	4.08798
389.795	8.46207
393.17	4.0253
396.545	3.55051
399.919	0.42627
403.294	9.2153
406.669	18.4694
410.044	35.3334
413.419	60.4201
416.793	89.7764
420.168	124.266
423.543	169.624
426.918	225.328
430.293	289.799
433.668	357.347
437.042	414.31
440.417	437.158
443.792	429.134
447.167	392.936
450.542	332.737
453.916	277.57
457.291	240.679
460.666	233.341
464.041	237.517
467.416	264.689
470.791	296.236
474.165	325.183
477.54	298.824
480.915	237.039
484.29	176.163
487.665	135.681
491.039	112.673
494.414	103.78
497.789	107.553
501.164	110.939
504.539	122.874
507.913	134.585
511.288	138.184
514.663	115.951
518.038	78.6921
521.413	48.2863
524.788	23.7826
528.162	12.0426
531.537	6.40169
534.912	0.702423
538.287	2.69659
541.662	4.32025
545.037	5.61526
548.411	3.97145
551.786	0.279114
555.161	2.98363
558.536	1.26703
561.911	1.66013
565.285	2.32715
568.66	5.78653
572.035	6.37566
575.41	7.77193
578.785	9.24088
582.159	11.3232
585.534	12.845
588.909	10.551
592.284	16.1649
595.659	17.876
599.034	20.369
602.408	23.3019
605.783	21.0269
609.158	21.9963
612.533	27.2206
615.908	26.8639
619.283	26.3144
622.657	31.3576
626.032	29.8335
629.407	35.0106
632.782	39.9259
636.157	39.4331
639.531	42.5577
642.906	42.4179
646.281	45.0372
649.656	53.5173
653.031	55.6151
656.405	58.702
659.78	55.0995
663.155	50.514
666.53	48.2504
669.905	46.6589
673.279	39.5358
676.654	34.0893
680.029	28.5582
683.404	23.4672
686.779	18.2688
690.154	15.1974
693.528	4.53882
696.903	4.92972
700.278	0.204834
703.653	5.97485
707.028	6.9596
710.403	8.49631
713.777	0.022583
717.152	7.65289
720.527	21.9777
723.902	52.4701
727.277	90.3098
730.651	145.851
734.026	221.346
737.401	317.3
740.776	410.416
744.151	483.373
747.525	497.89
750.9	429.634
754.275	321.271
757.65	204.437
761.025	115.369
764.399	46.1461
767.774	4.53155
771.149	8.0354
774.524	2.05914
777.899	39.9396
781.274	101.188
784.648	209.273
788.023	364.574
791.398	582.564
794.773	877.989
798.148	1255.52
801.523	1681.54
804.897	2085.49
808.272	2315.96
811.647	2288.58
815.022	1907.63
818.397	1386.32
821.771	903.307
825.146	560.071
828.521	315.566
831.896	151.591
835.271	60.3214
838.645	3.30328
842.02	15.6756
845.395	15.8092
848.77	22.3588
852.145	86.8708
855.52	200.304
858.894	368.999
862.269	614.993
865.644	987.445
869.019	1591.84
872.394	2518.68
875.769	3861.86
879.143	5592.47
882.518	7887.68
885.893	10128.5
889.268	9940.5
892.643	6976.48
896.017	4150.75
899.392	2503.39
902.767	1588.24
906.142	1058.59
909.517	721.518
912.891	505.911
916.266	364.307
919.641	253.828
923.016	179.882
926.391	122.184
929.766	82.1658
933.14	51.4975
936.515	27.5971
939.89	14.9177
943.265	4.94394
946.64	1.01028
950.014	5.08499
953.389	6.14273
956.764	5.19232
960.139	5.05942
963.514	1.05249
966.889	2.43985
970.263	3.099
973.638	3.55957
977.013	11.3694
980.388	15.0779
983.763	19.1041
987.137	22.0522
990.512	26.7593
993.887	31.5581
997.262	36.4592
1000.64	42.1961
1004.01	48.4135
1007.39	45.9299
1010.76	49.0824
1014.14	45.7121
1017.51	44.4099
1020.89	41.7927
1024.26	39.2229
1027.63	38.3703
1031.01	35.8696
1034.38	28.017
1037.76	29.4418
1041.13	26.0301
1044.51	23.3832
1047.88	19.3191
1051.26	18.7636
1054.63	16.8471
1058.01	15.0921
1061.38	12.6376
1064.76	14.0447
1068.13	12.3084
1071.51	11.3835
1074.88	8.46713
1078.26	11.1595
1081.63	10.7364
1085.01	7.29384
1088.38	9.23975
1091.76	8.29573
1095.13	9.7505
1098.51	10.5781
1101.88	7.30005
1105.26	5.12865
1108.63	6.13855
1112.01	5.88504
1115.38	6.81783
1118.76	5.05072
1122.13	3.62112
1125.51	3.44464
1128.88	1.96384
1132.26	0.757996
1135.63	2.25291
1139	0.114502
1142.38	0.204407
1145.75	1.23756
1149.13	0.765152
1152.5	1.63963
1155.88	0.358826
1159.25	0.74556
1162.63	0.324097
1166	0.428986
1169.38	1.97108
1172.75	3.38704
1176.13	5.61429
1179.5	4.41061
1182.88	7.16763
1186.25	8.63776
1189.63	10.8918
1193	11.7598
1196.38	16.1831
1199.75	14.8976
1203.13	15.9954
1206.5	18.7906
1209.88	20.3978
1213.25	17.7838
1216.62	22.434
1220	24.6782
1223.38	23.9136
1226.75	21.7989
1230.12	20.5346
1233.5	20.4023
1236.87	17.1735
1240.25	18.5559
1243.62	17.4998
1247	14.9849
1250.37	16.8817
1253.75	13.1704
1257.12	10.1757
1260.5	11.4137
1263.87	6.2189
1267.25	9.72623
1270.62	7.81995
1274	3.38634
1277.37	2.60361
1280.75	3.5674
1284.12	4.14621
1287.5	0.936966
1290.87	4.7287
1294.25	5.13768
1297.62	0.088196
1300.99	4.50375
1304.37	1.53632
