Measurement: Raman, 532 nm, unoriented, Raman Data Processed
Mineral: Volborthite
Rruff sample: R120063
Ideal chemistry: Cu_3_V_2_O_7_(OH)_2_2H_2_O
Locality: Milpillas mine, Municipio de Santa Cruz, Sonora, Mexico
Source: Evan Jones
Description: Parallel aggregate of dark green tabular crystals associated with malachite
Raman shift (cm-1)	intensity
212.95	0
215.843	0.106598
218.735	0.985565
221.628	3.28261
224.521	7.98605
227.413	11.8481
230.306	15.8745
233.199	20.8733
236.091	24.1245
238.984	28.802
241.877	30.7197
244.769	29.2524
247.662	28.6045
250.555	27.4075
253.448	26.3722
256.34	26.1953
259.233	25.328
262.126	25.5645
265.018	25.3237
267.911	27.3987
270.804	26.6394
273.697	25.555
276.589	24.0051
279.482	23.4836
282.375	19.0564
285.267	21.3424
288.16	12.905
291.053	10.7018
293.945	10.3104
296.838	6.01627
299.731	4.82501
302.623	3.95795
305.516	2.44618
308.409	0.425766
311.302	0.618805
314.194	0.415573
317.087	0.167465
319.98	1.13992
322.872	0.840942
325.765	0.674423
328.658	3.38274
331.55	2.26103
334.443	6.0208
337.336	8.24786
340.229	16.2824
343.121	9.72961
346.014	11.0978
348.907	8.595
351.799	15.808
354.692	9.47353
357.585	10.1198
360.478	14.0934
363.37	17.2335
366.263	24.1491
369.156	34.2367
372.048	45.2181
374.941	59.4904
377.834	73.1591
380.726	84.2608
383.619	89.6123
386.512	88.4545
389.404	77.0698
392.297	67.8654
395.19	46.9201
398.083	37.8653
400.975	31.1684
403.868	24.4251
406.761	14.5411
409.653	10.4693
412.546	8.93116
415.439	6.52476
418.332	4.74459
421.224	3.52725
424.117	2.7517
427.01	0.404518
429.902	1.757
432.795	0.7668
435.688	0.872879
438.58	0.056152
441.473	0.664017
444.366	0.887062
447.259	0.115807
450.151	0.305077
453.044	0.161087
455.937	1.11191
458.829	0.886009
461.722	0.869423
464.615	0.831902
467.507	0.252296
470.4	1.13403
473.293	1.24683
476.185	0.93351
479.078	2.02637
481.971	3.07629
484.864	1.84502
487.756	2.1973
490.649	3.21787
493.542	3.7077
496.434	3.94174
499.327	5.56711
502.22	5.72584
505.113	7.54351
508.005	8.93806
510.898	11.1097
513.791	12.7058
516.683	15.199
519.576	16.6871
522.469	18.0384
525.361	20.1395
528.254	19.3838
531.147	17.7355
534.04	16.5276
536.932	14.2867
539.825	13.1861
542.718	10.0756
545.61	13.5862
548.503	6.98991
551.396	5.11404
554.288	3.26301
557.181	1.89742
560.074	1.50318
562.967	1.54395
565.859	5.0469
568.752	0.354317
571.645	0.014259
574.537	0.322479
577.43	1.13261
580.323	0.105644
583.216	1.01019
586.108	0.362183
589.001	0.498154
591.894	0.553322
594.786	1.04102
597.679	0.290176
600.572	0.733604
603.464	0.640053
606.357	0.442848
609.25	4.85175
612.142	1.88918
615.035	0.460167
617.928	0.632057
620.821	0.674011
623.713	0.776207
626.606	0.808609
629.499	2.17576
632.391	1.29576
635.284	2.12815
638.177	2.46325
641.069	2.58128
643.962	2.97644
646.855	4.32765
649.747	3.88442
652.64	3.90434
655.533	4.09093
658.426	5.85698
661.318	4.97836
664.211	6.618
667.104	5.85464
669.996	7.08642
672.889	8.38406
675.782	7.43981
678.674	9.31235
681.567	9.95652
684.46	9.25363
687.353	11.4322
690.245	9.7867
693.138	8.89431
696.031	9.52337
698.923	8.34717
701.816	8.79852
704.709	6.32099
707.601	7.35229
710.494	5.94752
713.387	3.75622
716.28	2.96105
719.172	2.67232
722.065	3.28426
724.958	1.64326
727.85	0.585815
730.743	1.26424
733.636	0.561577
736.529	0.776237
739.421	0.56456
742.314	2.32528
745.207	7.44973
748.099	10.0233
750.992	5.77634
753.885	7.24763
756.777	8.51315
759.67	9.67118
762.563	11.2646
765.456	12.3046
768.348	14.2014
771.241	14.1151
774.134	12.7077
777.026	9.17601
779.919	8.28001
782.812	4.52922
785.704	2.53906
788.597	1.65306
791.49	3.11494
794.383	3.97743
797.275	5.52615
800.168	6.58315
803.061	3.74113
805.953	0.523392
808.846	3.9778
811.739	7.75461
814.631	15.1744
817.524	24.7423
820.417	33.3227
823.309	43.7411
826.202	55.1678
829.095	63.0083
831.988	72.6735
834.88	79.5576
837.773	84.6056
840.666	86.0559
843.558	90.5935
846.451	92.8198
849.344	94.0656
852.236	95.3623
855.129	94.6397
858.022	94.3574
860.915	92.7529
863.807	95.5502
866.7	103.171
869.593	115.459
872.485	134.135
875.378	156.601
878.271	186.422
881.163	222.044
884.056	268.722
886.949	322.257
889.842	384.254
892.734	447.796
895.627	505.341
898.52	540.741
901.412	550.318
904.305	519.918
907.198	459.171
910.091	382.828
912.983	304.928
915.876	235.114
918.769	182.111
921.661	138.177
924.554	103.817
927.447	78.2775
930.339	61.0367
933.232	44.3954
936.125	33.691
939.018	26.8222
941.91	22.9867
944.803	20.8113
947.696	15.8519
950.588	14.3411
953.481	11.5094
956.374	8.20662
959.266	3.89429
962.159	0.319458
965.052	1.73415
967.944	2.39743
970.837	2.37078
973.73	4.0815
976.623	2.89833
979.515	2.9259
982.408	1.6885
985.301	0.98185
988.193	6.42368
991.086	0.175339
993.979	0.838943
996.871	3.42468
999.764	3.18751
1002.66	4.73644
1005.55	7.19757
1008.44	7.67989
1011.34	9.467
1014.23	10.3976
1017.12	11.3419
1020.01	12.8777
1022.91	14.3032
1025.8	13.8618
1028.69	14.3822
1031.58	14.125
1034.48	13.1001
1037.37	12.4733
1040.26	11.2123
1043.15	11.5716
1046.05	10.4468
1048.94	10.4264
1051.83	9.7056
1054.73	9.46986
1057.62	9.09262
1060.51	9.05664
1063.4	8.45768
1066.3	8.23823
1069.19	7.8951
1072.08	6.55442
1074.97	7.00284
1077.87	5.79359
1080.76	5.8901
1083.65	6.0486
1086.55	6.07367
1089.44	4.54365
1092.33	3.78492
1095.22	5.26211
1098.12	3.69863
1101.01	3.32516
1103.9	3.15249
1106.79	2.30376
1109.69	2.10495
1112.58	2.79474
1115.47	2.58178
1118.37	1.65192
1121.26	1.6773
1124.15	1.69937
1127.04	0.683533
1129.94	0.993851
1132.83	0.675999
1135.72	0.891983
1138.61	0.157005
1141.51	0.377098
1144.4	0.117043
1147.29	0.882793
1150.18	0.173443
1153.08	1.80327
1155.97	0.270332
1158.86	0.079308
1161.76	0.961304
1164.65	0.463898
1167.54	0.170197
1170.43	0.525829
1173.33	0.097244
1176.22	1.9864
1179.11	0.864994
1182	0.98484
1184.9	0.737156
1187.79	0.754787
1190.68	0.5411
1193.58	0.270058
1196.47	0.204094
1199.36	0.054405
1202.25	0.307259
1205.15	1.1395
1208.04	1.20586
1210.93	0.203339
1213.82	0.146069
1216.72	0.565357
1219.61	0.512051
1222.5	0.822891
1225.39	4.23678
1228.29	0.840542
1231.18	0.288399
1234.07	1.15411
1236.97	4.31811
1239.86	1.05167
1242.75	0.778221
1245.64	1.39847
1248.54	0.153633
1251.43	0.621864
1254.32	1.09029
1257.21	0.765507
1260.11	1.42972
1263	1.81107
1265.89	0.840229
1268.79	0.861893
1271.68	0.033657
1274.57	0.01577
1277.46	0.26651
1280.36	1.2701
1283.25	1.15686
1286.14	0.656406
1289.03	1.59435
1291.93	2.00334
1294.82	0.044502
1297.71	0.515961
1300.61	0.336849
