Measurement: Raman, 532 nm, unoriented, Raman Data Processed
Mineral: Volborthite
Rruff sample: R050249
Ideal chemistry: Cu_3_V_2_O_7_(OH)_2_2H_2_O
Locality: Carlin Gold mine, Elko, Lynn District, Eureka County, Nevada, USA
Source: Marcus Origlieri
Description: Green lamellar
Raman shift (cm-1)	intensity
136.201	0
139.575	12.5815
142.95	13.8008
146.325	5.87646
149.7	15.1999
153.075	28.68
156.449	26.6724
159.824	35.5194
163.199	4.54498
166.574	29.7303
169.949	33.8
173.323	53.9704
176.698	55.902
180.073	77.7418
183.448	62.9933
186.823	61.7334
190.198	70.5132
193.572	60.854
196.947	74.1483
200.322	85.9702
203.697	108.934
207.072	128.006
210.446	180.157
213.821	209.428
217.196	225.901
220.571	260.003
223.946	312.029
227.321	395.096
230.695	538.313
234.07	697.517
237.445	832.745
240.82	939.949
244.195	961.12
247.569	831.545
250.944	638.322
254.319	427.767
257.694	287.836
261.069	183.856
264.443	99.8903
267.818	29.9271
271.193	27.2557
274.568	16.3075
277.943	3.26623
281.318	24.5432
284.692	6.80182
288.067	0.604553
291.442	19.1975
294.817	41.5528
298.192	58.8379
301.567	92.6453
304.941	120.472
308.316	113.701
311.691	149.994
315.066	134.356
318.44	120.374
321.815	126.659
325.19	150.117
328.565	226.077
331.94	291.359
335.315	393.796
338.689	495.864
342.064	627.226
345.439	663.318
348.814	645.951
352.189	568.194
355.563	442.517
358.938	303.831
362.313	234.968
365.688	174.684
369.063	116.158
372.438	62.4626
375.812	47.6428
379.187	11.4127
382.562	14.7209
385.937	15.9089
389.312	22.1025
392.687	14.3212
396.061	16.1088
399.436	4.77154
402.811	13.6788
406.186	31.7685
409.56	71.7068
412.935	100.014
416.31	138.507
419.685	209.069
423.06	294.765
426.435	430.078
429.809	568.319
433.184	733.619
436.559	850.445
439.934	955.51
443.309	920.614
446.683	805.729
450.058	696.98
453.433	559.973
456.808	443.252
460.183	381.372
463.558	396.213
466.932	412.733
470.307	458.909
473.682	489.219
477.057	493.493
480.432	408.873
483.807	317.738
487.181	211.283
490.556	168.563
493.931	148.457
497.306	165.698
500.68	158.169
504.055	202.062
507.43	221.862
510.805	230.629
514.18	233.517
517.555	173.842
520.929	91.3364
524.304	44.6514
527.679	5.85724
531.054	2.71875
534.429	8.41443
537.803	16.0984
541.178	14.014
544.553	9.4845
547.928	6.88257
551.303	1.04907
554.678	25.7883
558.052	19.6838
561.427	23.1477
564.802	1.57111
568.177	0.303467
571.552	11.1008
574.927	1.87164
578.301	19.0421
581.676	11.6854
585.051	12.4745
588.426	32.2316
591.801	29.9235
595.175	32.4056
598.55	39.5442
601.925	36.6089
605.3	32.602
608.675	14.7619
612.049	30.6032
615.424	37.5215
618.799	41.3481
622.174	43.7052
625.549	61.0463
628.923	50.7891
632.298	36.8736
635.673	58.8748
639.048	54.5612
642.423	73.5041
645.798	72.9815
649.172	88.1769
652.547	87.1908
655.922	111.85
659.297	90.2439
662.672	98.7386
666.046	104.221
669.421	85.3411
672.796	78.4671
676.171	63.0681
679.546	77.4572
682.92	50.6148
686.295	32.53
689.67	28.4996
693.045	22.1003
696.42	24.306
699.795	2.508
703.169	9.8031
706.544	4.1828
709.919	18.3982
713.294	4.38452
716.669	15.5173
720.043	45.2809
723.418	70.0434
726.793	152.401
730.168	246.062
733.543	412.339
736.918	583.305
740.292	843.024
743.667	1095.94
747.042	1171.87
750.417	1098.04
753.792	903.889
757.166	614.841
760.541	385.706
763.916	185.853
767.291	90.9856
770.666	18.1311
774.04	34.5471
777.415	0.986084
780.79	30.6773
784.165	164.87
787.54	331.224
790.915	657.281
794.289	1061.21
797.664	1666.88
801.039	2421.82
804.414	3147.69
807.789	3768.03
811.163	4024.9
814.538	3686.74
817.913	2833.55
821.288	1915.75
824.663	1136.59
828.038	635.37
831.412	337.333
834.787	110.346
838.162	5.604
841.537	7.32825
844.912	8.14099
848.286	73.0475
851.661	145.45
855.036	312.533
858.411	621.583
861.786	1018.34
865.16	1618.14
868.535	2423.83
871.91	3801.33
875.285	6020.1
878.66	9703.38
882.034	14252.7
885.409	18334.2
888.784	19349.4
892.159	14686.9
895.534	8923.45
898.909	5359.25
902.283	3333.59
905.658	2204.99
909.033	1486.87
912.408	1017.29
915.783	693.362
919.158	479.125
922.532	325.388
925.907	216.963
929.282	130.124
932.657	97.733
936.032	22.9279
939.406	26.4248
942.781	17.5206
946.156	12.6295
949.531	12.402
952.906	16.6533
956.28	8.45068
959.655	12.6921
963.03	2.93939
966.405	3.55865
969.78	0.010376
973.154	43.566
976.529	29.7932
979.904	34.6253
983.279	38.5568
986.654	45.1268
990.029	68.0051
993.403	68.0635
996.778	74.662
1000.15	65.3335
1003.53	82.827
1006.9	62.1658
1010.28	46.8042
1013.65	55.3988
1017.03	51.3352
1020.4	37.6848
1023.78	44.6511
1027.15	65.5461
1030.53	25.6308
1033.9	29.8809
1037.28	16.5263
1040.65	44.0972
1044.03	21.4991
1047.4	46.5222
1050.78	29.0063
1054.15	13.9277
1057.53	25.8891
1060.9	31.3665
1064.28	31.988
1067.65	54.4266
1071.02	57.7953
1074.4	47.4273
1077.77	75.1641
1081.15	67.0424
1084.52	76.4252
1087.9	110.081
1091.27	76.4365
1094.65	96.7343
1098.02	81.588
1101.4	88.639
1104.77	77.826
1108.15	85.7905
1111.52	70.9013
1114.9	69.1463
1118.27	66.4551
1121.65	53.8015
1125.02	52.524
1128.4	45.7787
1131.77	35.1303
1135.15	28.8829
1138.52	18.386
1141.89	25.9377
1145.27	23.1681
1148.64	6.34827
1152.02	10.9477
1155.39	2.6459
1158.77	9.47241
1162.14	2.02667
1165.52	7.33783
1168.89	4.56033
1172.27	0.430115
1175.64	14.6406
1179.02	0.230469
1182.39	8.9588
1185.77	1.41681
1189.14	10.2725
1192.52	6.42197
1195.89	1.08722
1199.27	21.3683
1202.64	32.0886
1206.02	14.5845
1209.39	30.0428
1212.77	24.4748
1216.14	28.6002
1219.52	37.2555
1222.89	28.1877
1226.27	17.5283
1229.64	24.2745
1233.02	30.8291
1236.39	31.9684
1239.77	26.268
1243.14	33.1704
1246.52	16.1598
1249.89	18.5337
1253.26	24.345
1256.64	29.6996
1260.01	23.7858
1263.39	16.6303
1266.76	17.9343
1270.14	11.7462
1273.51	30.1781
1276.89	4.1134
1280.26	9.5495
1283.64	6.17953
1287.01	1.81137
1290.39	14.8892
1293.76	1.40326
1297.14	4.27853
1300.51	8.94815
1303.89	7.54627
1307.26	4.34003
1310.64	8.40832
1314.01	0
