Measurement: Raman, 785 nm, unoriented, Raman Data Processed
Mineral: Volborthite
Rruff sample: R050249
Ideal chemistry: Cu_3_V_2_O_7_(OH)_2_2H_2_O
Locality: Carlin Gold mine, Elko, Lynn District, Eureka County, Nevada, USA
Source: Marcus Origlieri
Description: Green lamellar
Raman shift (cm-1)	intensity
133.845	0
136.738	36.5305
139.63	39.667
142.523	6.17807
145.416	1.18109
148.308	78.8513
151.201	170.232
154.094	182.839
156.986	115.055
159.879	84.1285
162.772	79.7845
165.665	89.6589
168.557	83.3962
171.45	73.0508
174.343	73.4924
177.235	64.6681
180.128	67.002
183.021	45.1525
185.913	28.2438
188.806	37.2197
191.699	17.3174
194.591	22.6603
197.484	16.8531
200.377	28.9197
203.27	38.2551
206.162	27.6386
209.055	23.6045
211.948	45.6392
214.84	47.7944
217.733	82.8575
220.626	120.727
223.518	143.12
226.411	192.159
229.304	231.4
232.197	287.416
235.089	340.283
237.982	364.629
240.875	429.004
243.767	409.707
246.66	340.443
249.553	281.658
252.446	217.803
255.338	151.932
258.231	87.0223
261.124	67.8794
264.016	26.9651
266.909	30.0408
269.802	10.8831
272.694	15.0609
275.587	1.39209
278.48	5.22205
281.373	16.9725
284.265	2.27185
287.158	2.9389
290.051	16.19
292.943	48.088
295.836	53.3802
298.729	75.337
301.621	69.1908
304.514	86.9746
307.407	102.296
310.3	113.818
313.192	114.392
316.085	131.874
318.978	146.421
321.87	158.528
324.763	169.511
327.656	222.49
330.548	249.225
333.441	321.657
336.334	354.269
339.227	414.262
342.119	463.363
345.012	467.503
347.905	480.818
350.797	413.793
353.69	353.476
356.583	295.316
359.476	208.654
362.368	157.115
365.261	130.157
368.154	69.9531
371.046	49.0894
373.939	19.1561
376.832	39.7781
379.724	33.247
382.617	26.8311
385.51	17.5135
388.402	25.1882
391.295	14.6979
394.188	6.81036
397.081	1.46075
399.973	6.87927
402.866	3.27689
405.759	0.144775
408.651	14.473
411.544	0.044586
414.437	3.87982
417.329	11.3997
420.222	32.3423
423.115	61.9892
426.008	41.1164
428.9	54.9992
431.793	71.7322
434.686	106.278
437.578	103.775
440.471	137.222
443.364	115.579
446.257	123.316
449.149	141.454
452.042	121.391
454.935	136.158
457.827	144.901
460.72	168.54
463.613	203.08
466.505	234.858
469.398	279.724
472.291	326.151
475.183	308.962
478.076	280.083
480.969	239.028
483.862	158.574
486.754	137.386
489.647	102.585
492.54	106.129
495.432	72.8774
498.325	82.7573
501.218	63.4129
504.111	64.5073
507.003	42.7029
509.896	46.5951
512.789	40.8976
515.681	29.4906
518.574	18.7343
521.467	1.32465
524.359	8.36075
527.252	4.03922
530.145	3.78488
533.038	12.0613
535.93	3.65076
538.823	1.60391
541.716	4.26651
544.608	18.7314
547.501	18.7838
550.394	10.5262
553.286	17.17
556.179	5.20825
559.072	8.32727
561.965	15.6859
564.857	0.309357
567.75	18.0339
570.643	14.0838
573.535	18.0883
576.428	9.30768
579.321	4.2424
582.213	21.6635
585.106	8.18201
587.999	9.97156
590.891	19.1132
593.784	6.55865
596.677	4.89023
599.57	16.7152
602.462	5.68237
605.355	12.4022
608.248	13.0882
611.14	8.62717
614.033	8.14062
616.926	7.23718
619.818	4.8931
622.711	21.7812
625.604	4.54184
628.497	16.6456
631.389	5.17029
634.282	12.0301
637.175	18.6526
640.067	9.08972
642.96	10.6319
645.853	1.9035
648.745	2.42612
651.638	20.0785
654.531	21.6397
657.424	23.6533
660.316	23.5572
663.209	16.0061
666.102	15.0093
668.994	0.172455
671.887	23.6393
674.78	13.9105
677.673	5.63193
680.565	23.3914
683.458	23.4379
686.351	10.5789
689.243	19.0156
692.136	0.496857
695.029	16.2806
697.921	0.171906
700.814	4.62039
703.707	0.721191
706.6	2.27069
709.492	23.6282
712.385	10.1244
715.278	5.3584
718.17	12.0156
721.063	10.0902
723.956	18.6323
726.848	2.36621
729.741	9.09311
732.634	31.3056
735.527	11.4229
738.419	40.9171
741.312	40.6916
744.205	46.7626
747.097	52.8211
749.99	51.1812
752.883	34.3952
755.775	4.06
758.668	8.97217
761.561	0.880524
764.454	2.94015
767.346	9.31354
770.239	13.4403
773.132	0.065613
776.024	15.6059
778.917	3.93341
781.81	40.1323
784.702	93.4705
787.595	112.226
790.488	166.804
793.381	266.847
796.273	322.304
799.166	456.872
802.059	560.662
804.951	640.329
807.844	706.733
810.737	726.217
813.63	636.144
816.522	511.877
819.415	378.268
822.308	272.324
825.2	167.332
828.093	107.022
830.986	65.8077
833.878	37.574
836.771	20.1779
839.664	8.7735
842.557	9.25989
845.449	32.2394
848.342	44.5093
851.235	84.1684
854.127	136.259
857.02	170.646
859.913	258.86
862.805	386.836
865.698	536.217
868.591	752.797
871.484	1056.65
874.376	1484.85
877.269	2092.07
880.162	2861.65
883.054	3738.23
885.947	4324.04
888.84	4056.65
891.732	3102.49
894.625	2164.25
897.518	1462.88
900.41	996.378
903.303	690.167
906.196	504.54
909.089	358.723
911.981	256.286
914.874	182.475
917.767	133.736
920.659	114.232
923.552	68.0572
926.445	48.8232
929.337	14.2927
932.23	22.4761
935.123	5.70416
938.016	9.81387
940.908	8.28339
943.801	21.6199
946.694	18.91
949.586	0.499329
952.479	2.83151
955.372	7.15372
958.264	0.457123
961.157	10.6984
964.05	11.4711
966.943	7.30341
969.835	1.94116
972.728	1.86621
975.621	20.5924
978.513	8.66409
981.406	22.6176
984.299	25.0476
987.192	24.2981
990.084	8.73444
992.977	24.002
995.87	51.5755
998.762	22.1328
1001.65	23.7292
1004.55	16.2891
1007.44	37.6681
1010.33	21.972
1013.23	35.8021
1016.12	10.267
1019.01	4.39203
1021.9	21.2118
1024.8	25.9313
1027.69	18.9226
1030.58	17.8777
1033.47	16.4293
1036.37	37.8485
1039.26	20.271
1042.15	18.9082
1045.05	20.0591
1047.94	22.1432
1050.83	8.08658
1053.72	8.90897
1056.62	19.5207
1059.51	30.5886
1062.4	11.743
1065.29	19.4402
1068.19	20.0537
1071.08	21.352
1073.97	18.3263
1076.87	7.89038
1079.76	19.609
1082.65	6.92047
1085.54	15.7342
1088.44	39.3558
1091.33	22.3288
1094.22	10.4826
1097.11	13.0272
1100.01	15.9742
1102.9	12.0347
1105.79	4.29096
1108.68	9.17523
1111.58	12.6459
1114.47	4.57843
1117.36	0.288574
1120.26	9.85284
1123.15	28.5796
1126.04	23.7421
1128.93	18.499
1131.83	12.105
1134.72	6.90448
1137.61	22.6185
1140.51	10.2295
1143.4	29.8516
1146.29	26.5472
1149.18	16.3807
1152.08	19.3719
1154.97	35.5213
1157.86	11.0967
1160.75	6.12237
1163.65	13.3886
1166.54	43.1647
1169.43	5.99744
1172.32	16.7633
1175.22	33.9636
1178.11	52.7773
1181	32.1938
1183.89	20.6231
1186.79	16.036
1189.68	7.24866
1192.57	28.6709
1195.47	57.4698
1198.36	32.3264
1201.25	27.1228
1204.14	22.361
1207.04	30.1919
1209.93	55.4954
1212.82	58.6807
1215.71	5.23993
1218.61	40.8476
1221.5	10.6331
1224.39	23.7119
1227.29	4.46777
1230.18	32.1643
1233.07	30.2936
1235.96	40.7024
