Measurement: Raman, 780 nm, unoriented, Raman Data Processed
Mineral: Volborthite
Rruff sample: R070710
Ideal chemistry: Cu_3_V_2_O_7_(OH)_2_2H_2_O
Locality: Newmont Gold mine, Carlin District, Elko County, Nevada,  USA
Source: Michael Scott
Description: Clusters of olive to yellowish green pseudohexagonal crystals
Raman shift (cm-1)	intensity
164.319	0
167.212	4.31216
170.105	9.29333
172.997	5.8662
175.89	2.16903
178.783	6.9725
181.675	4.34434
184.568	7.9997
187.461	5.16414
190.353	14.0572
193.246	15.404
196.139	18.9379
199.031	21.6896
201.924	28.9068
204.817	26.8079
207.709	31.8093
210.602	33.7292
213.495	34.7815
216.388	46.7408
219.28	60.6289
222.173	69.0678
225.066	84.5199
227.958	88.0655
230.851	102.514
233.744	104.037
236.637	99.7283
239.529	93.5392
242.422	85.5576
245.315	71.3479
248.207	55.0808
251.1	42.2911
253.993	32.6291
256.885	25.1152
259.778	22.907
262.671	13.0048
265.563	13.0737
268.456	9.76045
271.349	12.2544
274.242	6.13106
277.134	4.23347
280.027	7.99365
282.92	0.495934
285.812	5.20979
288.705	1.09312
291.598	0.28936
294.49	2.94523
297.383	3.07781
300.276	0.812546
303.169	0.229057
306.061	4.10796
308.954	3.77642
311.847	6.20981
314.739	10.211
317.632	9.89344
320.525	13.2606
323.418	23.1201
326.31	28.5654
329.203	31.0924
332.096	32.9404
334.988	41.7945
337.881	38.9034
340.774	37.556
343.666	37.1577
346.559	25.5151
349.452	26.4032
352.344	20.861
355.237	10.5415
358.13	15.6125
361.023	4.97741
363.915	0.714149
366.808	6.05337
369.701	2.7516
372.593	1.91432
375.486	0.112743
378.379	2.16811
381.272	1.65427
384.164	0.05933
387.057	0.283363
389.95	0.995743
392.842	0.120022
395.735	1.47949
398.628	2.6098
401.52	1.01337
404.413	5.79985
407.306	4.60221
410.199	7.09063
413.091	9.57542
415.984	13.3404
418.877	11.2045
421.769	13.5272
424.662	15.3155
427.555	15.0658
430.447	21.6235
433.34	17.6916
436.233	19.3762
439.125	19.2292
442.018	17.2119
444.911	15.3532
447.804	12.7379
450.696	12.1841
453.589	6.67934
456.482	11.138
459.374	14.783
462.267	12.1221
465.16	10.5465
468.053	11.4848
470.945	14.3406
473.838	14.105
476.731	10.1902
479.623	10.3537
482.516	5.92978
485.409	5.6207
488.301	3.9645
491.194	4.05658
494.087	7.48964
496.979	7.15862
499.872	6.25394
502.765	6.66287
505.658	2.47474
508.55	1.91136
511.443	1.83282
514.336	1.44721
517.228	3.25644
520.121	2.03638
523.014	0.751869
525.906	0.776283
528.799	0.489708
531.692	1.26625
534.585	0.426611
537.477	0.170702
540.37	0.841515
543.263	1.61395
546.155	1.03334
549.048	4.68444
551.941	4.6279
554.833	0.069208
557.726	6.21
560.619	0.93919
563.511	4.02299
566.404	1.94817
569.297	0.158619
572.19	2.81361
575.082	0.170757
577.975	3.1289
580.868	5.90549
583.76	5.85042
586.653	0.37524
589.546	3.68487
592.438	4.35229
595.331	0.736181
598.224	1.93557
601.117	3.51535
604.009	1.3888
606.902	1.0939
609.795	6.10022
612.687	6.96812
615.58	5.47609
618.473	3.24443
621.365	5.11763
624.258	4.44564
627.151	5.99742
630.044	4.54462
632.936	3.51684
635.829	3.67953
638.722	3.36883
641.614	1.43138
644.507	6.19996
647.4	8.65594
650.293	1.59759
653.185	5.27713
656.078	8.54998
658.971	6.06978
661.863	4.55615
664.756	2.79119
667.649	2.97424
670.541	3.40868
673.434	6.32906
676.327	0.893581
679.22	5.59999
682.112	2.06544
685.005	3.38791
687.898	2.11838
690.79	4.65812
693.683	3.30544
696.576	3.08033
699.468	0.390652
702.361	0.871845
705.254	2.14058
708.146	3.97847
711.039	0.214149
713.932	2.84111
716.825	3.86533
719.717	6.49495
722.61	11.3507
725.503	8.12801
728.395	10.0323
731.288	17.6104
734.181	17.8861
737.073	20.5061
739.966	23.5351
742.859	19.4795
745.751	18.2029
748.644	16.3794
751.537	11.8441
754.43	8.48844
757.322	3.8345
760.215	1.18169
763.108	2.47099
766	2.02074
768.893	0.729694
771.786	0.551792
774.678	0.425175
777.571	0.27631
780.464	6.48358
783.357	9.66821
786.249	12.0008
789.142	18.4714
792.035	29.2504
794.927	32.6551
797.82	47.9655
800.713	50.8961
803.606	57.1098
806.498	60.2956
809.391	52.2025
812.284	48.6397
815.176	32.3771
818.069	25.1483
820.962	16.9878
823.854	12.7652
826.747	7.91429
829.64	5.88993
832.533	4.63182
835.425	1.8177
838.318	4.45901
841.211	2.69224
844.103	0.832237
846.996	2.09933
849.889	11.1153
852.781	13.5241
855.674	21.0067
858.567	30.0089
861.46	44.8787
864.352	65.64
867.245	97.0078
870.138	137.989
873.03	188.804
875.923	234.826
878.816	265.441
881.708	275.973
884.601	267.776
887.494	214.422
890.386	158.444
893.279	108.945
896.172	78.2276
899.065	52.3006
901.957	40.3391
904.85	25.8899
907.743	21.3436
910.635	18.214
913.528	12.1582
916.421	9.81467
919.313	7.2413
922.206	5.17642
925.099	5.64462
927.992	1.75379
930.884	1.98634
933.777	0.331623
936.67	0.017567
939.562	4.0468
942.455	1.39614
945.348	4.51301
948.24	2.34024
951.133	1.19614
954.026	2.6224
956.919	2.5194
959.811	2.35936
962.704	4.99764
965.597	5.74113
968.489	1.80699
971.382	3.08875
974.275	4.91732
977.168	3.99614
980.06	2.89005
982.953	0.192383
985.846	1.84509
988.738	3.00122
991.631	3.69367
994.524	3.47785
997.416	4.73153
1000.31	6.46487
1003.2	4.80391
1006.09	7.08028
1008.99	1.81033
1011.88	1.8976
1014.77	2.14297
1017.66	4.87937
1020.56	6.28867
1023.45	4.83598
1026.34	7.9202
1029.24	6.49377
1032.13	4.98872
1035.02	6.50086
1037.91	3.95363
1040.81	6.02108
1043.7	4.6614
1046.59	4.29183
1049.48	1.20861
1052.38	4.05019
1055.27	3.97564
1058.16	5.78219
1061.06	0.775995
1063.95	0.914639
1066.84	4.97279
1069.73	5.71027
1072.63	1.46303
1075.52	5.70755
1078.41	4.26802
1081.31	4.59386
1084.2	1.44983
1087.09	4.78622
1089.98	3.25924
1092.88	0.693825
1095.77	1.33516
1098.66	3.65102
1101.55	1.72898
1104.45	1.2697
1107.34	2.07637
1110.23	1.04093
1113.12	0.201162
1116.02	3.07723
1118.91	1.32638
1121.8	3.63818
1124.69	1.68064
1127.59	4.91742
1130.48	6.57524
1133.37	0.016374
1136.27	2.91282
1139.16	2.13394
1142.05	6.32288
1144.94	3.20952
1147.84	0.827963
1150.73	1.07624
1153.62	3.49049
1156.52	0.591628
1159.41	0.871116
1162.3	6.37287
1165.19	2.83225
1168.09	2.60664
1170.98	0.367237
1173.87	4.09298
1176.76	1.84381
1179.66	0.408207
1182.55	0.005598
1185.44	5.06069
1188.33	3.87863
1191.23	3.08133
1194.12	2.9032
1197.01	1.60584
1199.9	4.44939
1202.8	4.22683
1205.69	5.07225
1208.58	1.0834
1211.48	2.78816
1214.37	4.69278
1217.26	1.25584
1220.15	5.82359
1223.05	1.04428
1225.94	3.0598
1228.83	2.33274
1231.72	6.06783
1234.62	1.53848
1237.51	6.64309
1240.4	3.24973
1243.3	3.86202
1246.19	4.65432
1249.08	3.77934
1251.97	1.69365
1254.87	2.77348
1257.76	1.52148
1260.65	3.62338
1263.55	5.44541
1266.44	1.90932
1269.33	5.03619
1272.22	5.10671
1275.12	5.33465
1278.01	0.583872
1280.9	5.3434
1283.79	3.01433
