Measurement: Raman, 780 nm, unoriented, Raman Data Processed
Mineral: Voltaite
Rruff sample: R060237
Ideal chemistry: K_2_Fe^2+^_5_Fe^3+^_3_Al(SO_4_)_12_18H_2_O
Locality: Dexter no. 7 mine, Calf Mesa, San Rafael Swell, Emery County, Utah, USA
Source: University of Arizona Mineral Museum
Description: Dark blue modified octahedra associated with romerite and coquimbite
Raman shift (cm-1)	intensity
156.913	0
159.806	0.17021
162.698	4.56028
165.591	10.2581
168.484	14.6274
171.376	26.3002
174.269	32.8614
177.162	40.0636
180.054	43.7368
182.947	45.5883
185.84	50.1904
188.733	50.6662
191.625	46.0717
194.518	47.6248
197.411	35.642
200.303	24.2097
203.196	17.8999
206.089	7.95862
208.982	2.40466
211.874	1.54733
214.767	2.17887
217.66	1.44243
220.552	0.779143
223.445	2.71549
226.338	8.42587
229.23	15.7536
232.123	32.0813
235.016	45.0562
237.909	71.4578
240.801	90.2553
243.694	124.11
246.587	150.221
249.479	180.879
252.372	203.207
255.265	222.846
258.157	236.26
261.05	244.05
263.943	236.705
266.836	215.811
269.728	191.796
272.621	159.202
275.514	132.388
278.406	105.065
281.299	80.2983
284.192	62.9599
287.084	50.7948
289.977	36.9995
292.87	31.2409
295.762	21.441
298.655	14.805
301.548	12.0355
304.441	10.5193
307.333	7.23293
310.226	5.73177
313.119	1.13188
316.011	1.77869
318.904	1.36809
321.797	3.9432
324.69	5.4085
327.582	0.433618
330.475	0.37937
333.368	3.18364
336.26	3.29922
339.153	1.59716
342.046	0.434719
344.938	0.630211
347.831	0.689302
350.724	0.895911
353.616	0.348308
356.509	1.19373
359.402	0.060607
362.295	1.39394
365.187	6.58451
368.08	8.09024
370.973	11.6478
373.865	13.4081
376.758	21.6044
379.651	18.9654
382.543	25.6596
385.436	27.0776
388.329	31.7325
391.222	29.4377
394.114	30.4125
397.007	26.775
399.9	20.0419
402.792	16.4032
405.685	14.7575
408.578	10.3076
411.471	7.9708
414.363	4.88969
417.256	15.3791
420.149	18.0788
423.041	30.1169
425.934	36.5195
428.827	50.5141
431.719	54.7834
434.612	57.9901
437.505	57.406
440.397	65.5713
443.29	70.1311
446.183	77.3942
449.076	86.1001
451.968	94.6562
454.861	102.221
457.754	106.901
460.646	113.45
463.539	111.292
466.432	97.2612
469.325	86.0825
472.217	70.6127
475.11	55.8749
478.003	37.7132
480.895	30.1461
483.788	18.6537
486.681	11.217
489.573	3.30395
492.466	4.47176
495.359	0.679341
498.252	0.781951
501.144	1.11676
504.037	2.1546
506.93	0.303099
509.822	0.725182
512.715	2.66596
515.608	0.66715
518.5	0.332824
521.393	0.278422
524.286	0.07681
527.178	0.190008
530.071	2.84177
532.964	1.44615
535.857	1.00561
538.749	4.52352
541.642	3.4173
544.535	0.056804
547.427	0.551307
550.32	0.444707
553.213	2.79357
556.106	3.35372
558.998	4.08697
561.891	3.4455
564.784	9.1746
567.676	5.18975
570.569	11.0159
573.462	13.5897
576.354	16.118
579.247	22.8734
582.14	27.4416
585.033	26.3331
587.925	30.3463
590.818	28.7319
593.711	28.1988
596.603	23.132
599.496	21.1254
602.389	18.0504
605.281	16.4291
608.174	12.8939
611.067	13.8892
613.96	21.2709
616.852	20.3141
619.745	23.6141
622.638	29.3067
625.53	29.0209
628.423	25.8026
631.316	21.852
634.208	26.189
637.101	21.223
639.994	18.7937
642.886	25.434
645.779	23.1576
648.672	23.9041
651.565	22.1034
654.457	18.8383
657.35	19.9216
660.243	12.3898
663.135	13.5781
666.028	7.78465
668.921	6.90379
671.813	7.51717
674.706	1.47409
677.599	2.18201
680.492	0.880237
683.384	3.83427
686.277	0.831436
689.17	0.514489
692.062	0.313009
694.955	0.340425
697.848	0.391721
700.74	1.42773
703.633	1.61852
706.526	1.51719
709.419	0.186968
712.311	2.14751
715.204	0.131625
718.097	3.04746
720.989	2.94657
723.882	1.44928
726.775	1.52637
729.668	2.71778
732.56	6.04224
735.453	5.64367
738.346	1.66502
741.238	2.79141
744.131	3.16132
747.024	1.94196
749.916	4.24353
752.809	2.25197
755.702	0.745011
758.595	2.91599
761.487	0.19872
764.38	5.48671
767.273	4.82712
770.165	0.06886
773.058	3.47271
775.951	3.21115
778.843	0.238066
781.736	1.81743
784.629	1.98359
787.521	0.687856
790.414	1.43765
793.307	0.572042
796.2	4.64736
799.092	2.03863
801.985	2.23809
804.878	4.72363
807.77	7.17595
810.663	3.35933
813.556	0.170925
816.448	1.33792
819.341	1.83791
822.234	5.21325
825.127	3.42481
828.019	3.32676
830.912	6.66715
833.805	3.34403
836.697	7.06823
839.59	8.43285
842.483	7.42802
845.375	4.90592
848.268	7.56024
851.161	7.80833
854.053	8.42794
856.946	5.99199
859.839	8.87518
862.732	7.90133
865.624	6.82605
868.517	8.86859
871.41	10.5993
874.302	9.64481
877.195	10.6224
880.088	8.46365
882.981	10.8783
885.873	8.25044
888.766	12.5818
891.659	11.1377
894.551	7.67782
897.444	8.2791
900.337	8.76009
903.229	5.88727
906.122	2.16527
909.015	2.61596
911.908	3.79274
914.8	1.10801
917.693	1.60163
920.586	4.13996
923.478	1.2708
926.371	0.038994
929.264	0.696577
932.156	1.21576
935.049	0.170081
937.942	1.54169
940.835	0.50521
943.727	0.856376
946.62	1.61704
949.513	3.89995
952.405	0.774099
955.298	3.19212
958.191	3.41766
961.083	12.0595
963.976	15.6773
966.869	25.428
969.761	36.9699
972.654	48.4674
975.547	62.7465
978.44	78.5115
981.332	95.0156
984.225	106.866
987.118	118.255
990.01	128.925
992.903	140.684
995.796	156.646
998.688	175.588
1001.58	193.143
1004.47	207.716
1007.37	223.239
1010.26	245.332
1013.15	279.888
1016.04	324.473
1018.94	378.946
1021.83	429.918
1024.72	472.374
1027.62	477.535
1030.51	454.343
1033.4	392.16
1036.29	332.63
1039.19	278.501
1042.08	232.645
1044.97	207.141
1047.87	175.366
1050.76	145.966
1053.65	126.456
1056.54	95.3884
1059.43	77.9172
1062.33	54.188
1065.22	40.8608
1068.11	22.5291
1071.01	17.0178
1073.9	9.98483
1076.79	3.28251
1079.68	2.11602
1082.58	0.865915
1085.47	0.324086
1088.36	2.41741
1091.26	1.05971
1094.15	2.05174
1097.04	1.99297
1099.93	1.84192
1102.83	0.908576
1105.72	3.73
1108.61	2.23372
1111.5	2.59933
1114.4	1.57428
1117.29	4.03433
1120.18	5.90247
1123.08	8.92459
1125.97	8.42646
1128.86	9.68798
1131.75	7.33126
1134.64	10.2206
1137.54	13.2397
1140.43	17.9549
1143.32	14.7836
1146.22	18.1688
1149.11	18.4714
1152	12.2169
1154.89	16.1959
1157.79	15.1667
1160.68	12.167
1163.57	10.6297
1166.46	11.2522
1169.36	10.0054
1172.25	14.0836
1175.14	23.3037
1178.04	17.4906
1180.93	28.0138
1183.82	30.5572
1186.71	38.4099
1189.61	48.8376
1192.5	54.1825
1195.39	64.1576
1198.29	70.3134
1201.18	73.9267
1204.07	77.1626
1206.96	71.695
1209.86	68.146
1212.75	58.9273
1215.64	45.0922
1218.53	37.6612
1221.43	26.6992
1224.32	20.8369
1227.21	14.7613
1230.1	12.5909
1233	3.94241
1235.89	3.18012
1238.78	2.90853
1241.67	0.11624
1244.57	1.19305
1247.46	6.58115
1250.35	1.47968
1253.25	0.355592
1256.14	0.225745
1259.03	1.37274
1261.92	2.98884
1264.82	3.58647
1267.71	5.00642
1270.6	5.92868
1273.49	2.21805
1276.39	3.27931
1279.28	1.11353
1282.17	7.36782
1285.07	0
