Measurement: Raman, 532 nm, unoriented, Raman Data Processed
Mineral: Voltaite
Rruff sample: R060237
Ideal chemistry: K_2_Fe^2+^_5_Fe^3+^_3_Al(SO_4_)_12_18H_2_O
Locality: Dexter no. 7 mine, Calf Mesa, San Rafael Swell, Emery County, Utah, USA
Source: University of Arizona Mineral Museum
Description: Dark blue modified octahedra associated with romerite and coquimbite
Raman shift (cm-1)	intensity
150.414	0
153.307	1.87063
156.2	8.0298
159.092	9.64469
161.985	11.7784
164.878	15.3539
167.77	18.3089
170.663	26.9727
173.556	29.9204
176.448	37.3128
179.341	41.7234
182.234	44.0087
185.127	48.484
188.019	53.5134
190.912	57.4917
193.805	55.661
196.697	51.1703
199.59	47.3692
202.483	39.5573
205.375	33.8387
208.268	25.9557
211.161	16.5899
214.054	8.94793
216.946	2.17984
219.839	2.90502
222.732	0.964263
225.624	0.278824
228.517	0.577955
231.41	2.40104
234.303	2.91587
237.195	11.3664
240.088	26.166
242.981	44.2876
245.873	65.6403
248.766	97.6871
251.659	132.831
254.551	170.345
257.444	213.039
260.337	256.021
263.229	290.381
266.122	313.443
269.015	314.368
271.908	295.6
274.8	261.69
277.693	216.443
280.586	172.851
283.478	135.052
286.371	103.389
289.264	77.0908
292.156	56.7317
295.049	43.7532
297.942	32.2841
300.835	26.6941
303.727	20.052
306.62	14.9622
309.513	13.3181
312.405	7.74371
315.298	5.63194
318.191	2.03267
321.084	0.395958
323.976	0.296642
326.869	1.21781
329.762	0.194353
332.654	0.563016
335.547	2.01251
338.44	3.6945
341.332	5.77849
344.225	3.9067
347.118	2.33088
350.01	0.00955
352.903	1.06522
355.796	1.04352
358.689	0.984451
361.581	0.317348
364.474	1.837
367.367	0.55811
370.259	1.84316
373.152	5.40572
376.045	11.3415
378.938	15.2118
381.83	22.8027
384.723	28.0469
387.616	34.2448
390.508	41.3413
393.401	47.3425
396.294	51.4898
399.186	53.1185
402.079	49.2395
404.972	43.4994
407.865	35.0952
410.757	27.104
413.65	20.6496
416.543	17.8756
419.435	17.8396
422.328	23.0143
425.221	38.9036
428.113	48.4559
431.006	62.0324
433.899	67.9042
436.791	69.6394
439.684	70.379
442.577	74.4424
445.469	77.2018
448.362	81.2318
451.255	90.9307
454.148	98.7419
457.04	111.166
459.933	121.222
462.826	133.251
465.718	140.352
468.611	137.137
471.504	127.879
474.397	109.179
477.289	87.7605
480.182	64.6556
483.075	47.4694
485.967	31.8332
488.86	20.1919
491.753	11.047
494.645	6.86629
497.538	2.39284
500.431	0.14922
503.324	1.7553
506.216	1.69176
509.109	0.069665
512.002	0.297472
514.894	0.033207
517.787	0.203513
520.68	0.255238
523.572	0.15049
526.465	0.273894
529.358	0.653879
532.25	0.319613
535.143	0.286076
538.036	0.226777
540.929	1.49954
543.821	2.0434
546.714	1.85019
549.607	1.72842
552.5	2.0754
555.392	1.1764
558.285	1.86151
561.178	2.05858
564.07	1.51391
566.963	3.05119
569.856	2.78222
572.748	4.36425
575.641	7.11941
578.534	11.075
581.427	15.9711
584.319	21.0462
587.212	24.9705
590.105	29.6096
592.997	29.3768
595.89	28.0357
598.783	23.8548
601.675	20.1408
604.568	16.196
607.461	14.6697
610.353	14.9828
613.246	17.1903
616.139	23.8621
619.032	29.4002
621.924	36.5123
624.817	41.7278
627.71	43.9793
630.602	42.2862
633.495	36.9571
636.388	32.8714
639.28	27.5396
642.173	24.2858
645.066	22.9047
647.958	21.7145
650.851	21.5903
653.744	21.8722
656.637	21.0733
659.529	22.2905
662.422	19.1761
665.315	16.795
668.207	13.8392
671.1	11.264
673.993	8.73724
676.885	5.65002
679.778	3.99285
682.671	1.8603
685.564	1.24377
688.456	0.224909
691.349	0.259287
694.242	0.442288
697.134	0.807964
700.027	0.330659
702.92	0.301317
705.812	0.433349
708.705	0.800038
711.598	0.013014
714.491	1.43497
717.383	0.077777
720.276	0.40171
723.169	0.287005
726.061	0.316505
728.954	0.741085
731.847	0.845984
734.74	1.68869
737.632	1.53571
740.525	2.19863
743.418	1.50873
746.31	1.74039
749.203	2.03637
752.096	2.24471
754.988	2.22403
757.881	2.31908
760.774	0.909541
763.667	2.36776
766.559	1.22639
769.452	1.30218
772.345	0.837665
775.237	0.251041
778.13	0.422223
781.023	0.555447
783.915	0.379883
786.808	0.899448
789.701	0.001185
792.593	0.377733
795.486	0.439543
798.379	0.241975
801.271	0.721078
804.164	0.311084
807.057	0.792441
809.95	0.097958
812.842	0.800014
815.735	0.41313
818.628	0.052953
821.52	1.01305
824.413	0.735183
827.306	1.26363
830.198	1.74792
833.091	1.69385
835.984	1.89244
838.877	1.6923
841.769	3.28896
844.662	3.95397
847.555	4.03046
850.447	3.81661
853.34	4.93112
856.233	5.73757
859.125	5.87497
862.018	6.20671
864.911	7.28535
867.804	8.19782
870.696	8.20106
873.589	8.88147
876.482	9.87759
879.375	10.0111
882.267	10.0075
885.16	9.84514
888.053	10.3315
890.945	10.2124
893.838	9.64647
896.731	10.9861
899.623	10.7205
902.516	10.65
905.409	7.57631
908.302	7.59547
911.194	6.34714
914.087	5.4403
916.98	3.7651
919.872	3.12636
922.765	1.40659
925.658	0.914548
928.55	1.27357
931.443	0.330893
934.336	1.52057
937.229	0.463453
940.121	0.200468
943.014	0.228403
945.907	0.812126
948.799	1.39559
951.692	3.03445
954.585	4.38948
957.477	2.9386
960.37	2.24698
963.263	6.60676
966.155	13.9967
969.048	25.8591
971.941	40.5633
974.834	60.0278
977.726	87.0222
980.619	120.88
983.512	156.948
986.404	188.483
989.297	212.184
992.19	226.079
995.082	229.739
997.975	238.913
1000.87	260.743
1003.76	289.388
1006.65	308.759
1009.55	313.357
1012.44	308.505
1015.33	306.925
1018.22	323.634
1021.12	361.289
1024.01	419.471
1026.9	495.048
1029.8	576.702
1032.69	621.179
1035.58	625.183
1038.47	589.062
1041.37	525.819
1044.26	462.296
1047.15	411.538
1050.04	372.215
1052.94	336.06
1055.83	292.003
1058.72	239.38
1061.62	190.047
1064.51	143.524
1067.4	101.542
1070.29	72.3876
1073.18	48.3123
1076.08	30.8225
1078.97	16.9849
1081.86	9.56422
1084.76	1.85537
1087.65	0.136337
1090.54	3.20863
1093.43	4.79505
1096.33	2.8039
1099.22	0.107585
1102.11	1.64268
1105.01	0.00513
1107.9	0.334152
1110.79	0.663751
1113.68	2.19169
1116.58	0.803612
1119.47	2.00175
1122.36	2.0229
1125.25	4.20068
1128.15	3.97565
1131.04	6.17595
1133.93	6.60668
1136.83	10.3703
1139.72	12.7778
1142.61	14.2526
1145.5	16.6585
1148.4	18.4615
1151.29	18.7049
1154.18	18.6692
1157.07	17.9542
1159.97	17.9198
1162.86	15.3437
1165.75	14.7225
1168.64	14.4764
1171.54	13.8776
1174.43	16.0399
1177.32	19.0293
1180.21	23.515
1183.11	29.1526
1186	38.1084
1188.89	49.7847
1191.79	62.3916
1194.68	80.0468
1197.57	98.8924
1200.46	117.72
1203.36	138.154
1206.25	151.704
1209.14	159.429
1212.04	159.252
1214.93	150.762
1217.82	135.23
1220.71	113.474
1223.61	90.54
1226.5	69.2089
1229.39	50.6754
1232.28	37.0486
1235.18	28.1866
1238.07	19.804
1240.96	14.6778
1243.86	8.80207
1246.75	6.4886
1249.64	3.55477
1252.53	1.56868
1255.42	0.394665
1258.32	1.41784
1261.21	0.474864
1264.1	0.794332
1267	0.023739
1269.89	0.137268
1272.78	0.908318
1275.67	0.936279
1278.57	2.72144
1281.46	3.0646
1284.35	4.37936
1287.24	3.74097
1290.14	2.5657
1293.03	2.99577
1295.92	1.18742
1298.82	0.886014
1301.71	0.599057
