Measurement: Raman, 532 nm, unoriented, Raman Data Processed
Mineral: Vonsenite
Rruff sample: R050221
Ideal chemistry: Fe^2+^_2_Fe^3+^O_2_(BO_3_)
Locality: Monchi mine, Burguillos del Cerro, Badajoz, Extremadura, Spain
Source: Marcus Origlieri
Description: Mass of thin bladed black crystals
Measured chemistry: (Fe^2+^_1.96_Mg_0.03_Mn_0.01_)_Σ=2_(Fe^3+^_0.98_Al_0.02_)_Σ=1_BO_5_
Raman shift (cm-1)	intensity
126.048	0
128.941	1.78941
131.833	6.18552
134.726	4.68326
137.619	5.75326
140.511	8.31814
143.404	2.30801
146.297	2.75922
149.19	2.59491
152.082	2.95375
154.975	2.86461
157.868	2.86853
160.76	2.50677
163.653	1.39979
166.546	0.722811
169.438	0.011839
172.331	0.411879
175.224	0.514261
178.117	0.139317
181.009	0.35685
183.902	0.33276
186.795	0.672852
189.687	0.922163
192.58	0.812469
195.473	0.424313
198.365	0.528919
201.258	1.54323
204.151	3.23317
207.043	4.97705
209.936	5.65418
212.829	7.98362
215.722	10.9895
218.614	15.9117
221.507	20.7065
224.4	19.2428
227.292	11.0214
230.185	6.4703
233.078	4.68025
235.97	4.03377
238.863	3.66067
241.756	3.73354
244.649	3.20031
247.541	1.58576
250.434	0.632233
253.327	0.354301
256.219	0.54915
259.112	0.719114
262.005	1.74351
264.897	2.29981
267.79	3.24995
270.683	3.7568
273.576	4.95462
276.468	6.66214
279.361	7.9426
282.254	11.1207
285.146	13.147
288.039	14.792
290.932	13.6351
293.825	11.4261
296.717	9.51196
299.61	6.95812
302.503	5.46328
305.395	3.44063
308.288	2.14654
311.181	0.890375
314.073	0.260824
316.966	0.25515
319.859	0.288782
322.752	0.437262
325.644	0.007868
328.537	0.267885
331.43	0.216402
334.322	0.249475
337.215	0.32025
340.108	0.116222
343	0.131414
345.893	0.16535
348.786	0.078138
351.678	0.133146
354.571	0.068882
357.464	0.39546
360.356	0.741039
363.249	0.678421
366.142	0.94116
369.035	1.39915
371.927	1.27101
374.82	1.93599
377.713	2.9142
380.605	3.87115
383.498	4.7995
386.391	5.44994
389.284	6.5506
392.176	7.89486
395.069	10.0828
397.962	10.8427
400.854	11.9772
403.747	11.8264
406.64	11.3133
409.532	9.3498
412.425	7.44521
415.318	4.68426
418.211	3.86515
421.103	2.2236
423.996	1.31886
426.889	0.773134
429.781	0.815779
432.674	0.984968
435.567	0.707893
438.459	0.255724
441.352	0.888737
444.245	1.20579
447.137	0.488602
450.03	0.383656
452.923	0.785341
455.816	0.757219
458.708	0.607544
461.601	0.479395
464.494	0.38883
467.386	0.648182
470.279	1.41263
473.172	0.872894
476.065	1.72617
478.957	1.87825
481.85	2.15149
484.743	2.285
487.635	3.13698
490.528	2.88995
493.421	2.98608
496.313	2.71213
499.206	2.4908
502.099	1.7127
504.991	1.27802
507.884	1.24306
510.777	0.981112
513.67	0.337143
516.562	0.236073
519.455	0.290699
522.348	0.227053
525.24	0.075554
528.133	0.471615
531.026	0.316982
533.918	0.062292
536.811	0.086767
539.704	0.186766
542.597	0.015423
545.489	0.290482
548.382	0.715492
551.275	0.97521
554.167	1.04828
557.06	1.64819
559.953	2.12439
562.846	2.21318
565.738	2.23743
568.631	2.1308
571.524	2.55847
574.416	2.69807
577.309	2.82617
580.202	3.32838
583.094	3.01403
585.987	2.98907
588.88	3.70156
591.773	3.68992
594.665	3.58383
597.558	4.48269
600.451	4.58453
603.343	4.61211
606.236	5.15034
609.129	4.50231
612.021	3.63255
614.914	3.70014
617.807	3.692
620.699	3.73285
623.592	3.79623
626.485	3.75719
629.378	3.81284
632.27	4.43846
635.163	3.591
638.056	4.15648
640.948	3.94521
643.841	4.13112
646.734	3.57019
649.626	3.68833
652.519	3.42961
655.412	3.14764
658.305	2.89853
661.197	2.34092
664.09	1.89096
666.983	1.67198
669.875	1.21841
672.768	0.701746
675.661	0.590132
678.553	0.937954
681.446	0.542717
684.339	0.198097
687.232	0.247764
690.124	0.11956
693.017	0.062053
695.91	0.220355
698.802	0.080498
701.695	0.330452
704.588	0.15178
707.481	0.227539
710.373	0.0118
713.266	0.350033
716.159	0.115941
719.051	0.038882
721.944	0.08064
724.837	0.058088
727.729	0.242193
730.622	0.132517
733.515	0.089431
736.408	0.217937
739.3	0.039475
742.193	0.29862
745.086	0.213881
747.978	0.174788
750.871	0.185252
753.764	0.413192
756.656	0.510805
759.549	0.173585
762.442	0.755159
765.335	0.497613
768.227	0.566424
771.12	0.398313
774.013	0.381592
776.905	0.452936
779.798	0.153747
782.691	0.634059
785.583	0.898534
788.476	0.249207
791.369	0.979079
794.261	1.17882
797.154	1.22883
800.047	0.961848
802.939	1.27879
805.832	1.30551
808.725	0.934994
811.618	1.23216
814.51	1.09574
817.403	1.20052
820.296	1.00482
823.188	0.708997
826.081	1.5939
828.974	1.39857
831.866	0.718334
834.759	1.13424
837.652	0.986198
840.545	1.44829
843.437	1.29688
846.33	1.21517
849.223	0.666636
852.115	0.468089
855.008	1.14224
857.901	1.05832
860.793	1.17381
863.686	1.02113
866.579	0.654546
869.472	1.15375
872.364	1.16767
875.257	0.565475
878.15	0.726328
881.042	0.119154
883.935	0.785208
886.828	0.338211
889.721	0.023718
892.613	0.61123
895.506	0.37193
898.399	0.377964
901.291	0.107083
904.184	0.102007
907.077	0.342032
909.969	0.082349
912.862	0.128929
915.755	0.224859
918.648	0.287606
921.54	0.037301
924.433	0.083609
927.326	0.324428
930.218	0.095417
933.111	0.450438
936.004	0.233107
938.896	0.715449
941.789	0.96452
944.682	0.491866
947.574	0.40112
950.467	1.20424
953.36	0.198956
956.253	0.26792
959.145	0.420374
962.038	0.290688
964.931	0.270153
967.823	0.001534
970.716	0.009574
973.609	0.049251
976.501	0.05641
979.394	0.114402
982.287	0.042645
985.18	0.258429
988.072	0.293249
990.965	0.165193
993.858	0.246267
996.75	0.211135
999.643	0.572058
1002.54	0.607686
1005.43	0.90574
1008.32	0.330074
1011.21	0.605762
1014.11	0.859479
1017	1.20453
1019.89	1.32459
1022.78	0.986551
1025.68	1.24858
1028.57	1.38223
1031.46	1.44607
1034.36	1.49529
1037.25	1.56505
1040.14	1.54373
1043.03	1.13288
1045.93	1.27177
1048.82	1.53937
1051.71	1.15122
1054.6	1.26682
1057.5	1.40784
1060.39	1.24256
1063.28	1.08247
1066.17	0.986083
1069.07	0.496641
1071.96	0.874757
1074.85	1.12556
1077.75	0.782723
1080.64	1.09382
1083.53	1.10705
1086.42	1.09524
1089.32	0.87855
1092.21	0.969899
1095.1	0.956728
1097.99	1.03903
1100.89	0.98952
1103.78	0.98772
1106.67	0.993384
1109.57	0.994849
1112.46	0.619999
1115.35	0.377849
1118.24	0.761639
1121.14	0.144047
1124.03	0.42029
1126.92	0.43203
1129.82	0.186884
1132.71	0.032293
1135.6	0.238076
1138.49	0.119644
1141.38	0.415896
1144.28	0.163584
1147.17	0.045284
1150.06	0.29117
1152.96	0.036788
1155.85	0.428954
1158.74	0.654367
1161.63	0.003269
1164.53	0.410605
1167.42	0.569698
1170.31	0.288693
1173.2	0.255877
1176.1	0.610168
1178.99	0.433656
1181.88	0.58188
1184.78	0.701825
1187.67	1.05465
1190.56	0.8456
1193.45	0.66433
1196.35	0.763084
1199.24	0.507229
1202.13	0.17054
1205.03	0.510912
1207.92	0.64729
1210.81	0.14747
1213.7	0.335076
1216.6	0.300144
1219.49	0.028121
1222.38	0.194384
1225.27	0.015857
1228.17	0.39592
1231.06	0.200606
1233.95	0.113165
1236.84	0.03968
1239.74	0.567918
1242.63	0.543
1245.52	0.390302
1248.41	0.78372
1251.31	0.226875
1254.2	0.349689
1257.09	0.708687
1259.99	0.60408
1262.88	0.509575
1265.77	0.409443
1268.66	0.117674
1271.56	0.513378
1274.45	0.30179
