Measurement: Raman, 780 nm, unoriented, Raman Data Processed
Mineral: Vuagnatite
Rruff sample: R050397
Ideal chemistry: CaAlSiO_4_(OH)
Locality: Red Mountain, Mendocino County, California, USA
Source: Marcus Origlieri
Description: Colorless prismatic crystals
Measured chemistry: Ca_1.00_Al_1.00_(Si_1.00_O_4_)(OH)
Raman shift (cm-1)	intensity
145.556	0
148.449	0.059971
151.342	0.549362
154.234	2.19506
157.127	4.78068
160.02	8.1368
162.912	14.555
165.805	22.5204
168.698	19.71
171.591	16.183
174.483	18.5459
177.376	29.1535
180.269	40.9
183.161	20.3013
186.054	13.1159
188.947	7.84303
191.839	7.73128
194.732	9.77761
197.625	10.3907
200.518	12.8143
203.41	3.86971
206.303	2.51015
209.196	4.22028
212.088	7.90573
214.981	13.7748
217.874	22.9532
220.766	26.8388
223.659	8.50078
226.552	4.49979
229.445	3.20301
232.337	0.665302
235.23	0.077007
238.123	0.338341
241.015	0.96508
243.908	2.23045
246.801	4.99249
249.694	8.89376
252.586	1.93705
255.479	0.782162
258.372	1.02512
261.264	0.039532
264.157	0.815895
267.05	4.3069
269.942	9.16488
272.835	10.4749
275.728	7.61712
278.62	12.7072
281.513	19.0902
284.406	22.2022
287.299	19.4683
290.191	7.18588
293.084	1.91473
295.977	1.35756
298.869	4.7854
301.762	5.40136
304.655	2.04478
307.548	3.44589
310.44	5.82878
313.333	4.77254
316.226	2.42683
319.118	4.84235
322.011	11.8039
324.904	21.8093
327.796	28.0786
330.689	14.2783
333.582	3.06264
336.474	2.29416
339.367	4.99445
342.26	9.08107
345.152	5.76098
348.045	1.61679
350.938	3.54069
353.831	6.67526
356.723	14.2467
359.616	19.9524
362.509	4.2573
365.401	1.45999
368.294	0.314056
371.187	1.41694
374.079	5.09852
376.972	10.3887
379.865	17.909
382.758	26.9802
385.65	37.6479
388.543	49.0137
391.436	44.9145
394.328	42.1376
397.221	40.2064
400.114	31.9715
403.007	25.24
405.899	17.0124
408.792	7.44543
411.685	2.63267
414.577	1.30077
417.47	3.07418
420.363	4.00228
423.255	7.24191
426.148	11.3657
429.041	16.1474
431.933	19.3742
434.826	21.847
437.719	19.2299
440.612	16.2267
443.504	11.7155
446.397	7.09952
449.29	2.15704
452.182	0.343834
455.075	0.836578
457.968	0.79858
460.861	0.766079
463.753	0.299923
466.646	0.603771
469.539	0.541069
472.431	0.098953
475.324	0.674828
478.217	0.808811
481.109	1.00337
484.002	2.67142
486.895	3.87885
489.788	5.85316
492.68	9.05646
495.573	14.1279
498.466	19.1192
501.358	28.5851
504.251	37.9134
507.144	26.1609
510.036	10.822
512.929	4.71578
515.822	2.72586
518.715	1.52185
521.607	0.974796
524.5	1.09908
527.393	1.41648
530.285	1.69596
533.178	1.94856
536.071	3.8434
538.963	8.06459
541.856	14.6505
544.749	21.0763
547.641	32.1912
550.534	49.2983
553.427	72.4804
556.32	88.4041
559.212	67.3289
562.105	40.1231
564.998	31.0234
567.89	34.4726
570.783	44.8782
573.676	58.1854
576.568	71.9687
579.461	80.8993
582.354	93.751
585.247	102.644
588.139	68.3574
591.032	30.3984
593.925	15.0731
596.817	8.47612
599.71	5.25863
602.603	3.63379
605.495	2.566
608.388	1.94135
611.281	1.22907
614.174	0.8867
617.066	0.527485
619.959	0.319351
622.852	0.610142
625.744	0.590061
628.637	0.161652
631.53	0.081924
634.423	0.096306
637.315	0.076389
640.208	0.535069
643.101	1.64179
645.993	2.31373
648.886	1.74007
651.779	0.726528
654.671	0.741116
657.564	0.574062
660.457	1.38362
663.35	1.19701
666.242	1.4279
669.135	1.74842
672.028	1.59721
674.92	1.54745
677.813	1.15629
680.706	1.41726
683.598	1.07146
686.491	1.64743
689.384	1.31351
692.277	1.20535
695.169	1.30674
698.062	1.8053
700.955	1.87225
703.847	2.37815
706.74	2.29699
709.633	1.95955
712.525	2.44064
715.418	2.07771
718.311	2.44118
721.203	1.80798
724.096	1.4283
726.989	1.40401
729.882	1.42139
732.774	1.56805
735.667	0.786022
738.56	0.764982
741.452	0.514635
744.345	0.711582
747.238	0.367535
750.13	0.346134
753.023	0.832088
755.916	0.178726
758.809	0.160938
761.701	0.118584
764.594	0.013706
767.487	0.54179
770.379	0.671383
773.272	2.03699
776.165	3.38828
779.058	4.89322
781.95	6.8056
784.843	8.95347
787.736	9.93953
790.628	10.0378
793.521	10.3526
796.414	11.158
799.306	13.1081
802.199	15.158
805.092	16.0102
807.985	14.4372
810.877	9.93815
813.77	6.12793
816.663	2.65772
819.555	0.184471
822.448	1.30463
825.341	1.25095
828.233	0.0975
831.126	0.599472
834.019	2.45986
836.912	6.96154
839.804	10.9019
842.697	21.1626
845.59	34.897
848.482	53.8575
851.375	78.2191
854.268	112.039
857.16	150.64
860.053	173.65
862.946	155.417
865.838	115.169
868.731	89.563
871.624	76.0723
874.517	71.8591
877.409	74.2945
880.302	74.7989
883.195	62.4307
886.087	45.1316
888.98	36.0984
891.873	33.5456
894.765	36.5502
897.658	46.2699
900.551	66.1891
903.444	93.396
906.336	136.971
909.229	197.711
912.122	279.414
915.014	313.486
917.907	215.067
920.8	107.019
923.692	56.0466
926.585	33.0348
929.478	21.609
932.37	15.3747
935.263	10.4642
938.156	6.6872
941.049	3.83515
943.941	2.3157
946.834	0.922798
949.727	0.211693
952.619	0.202023
955.512	0.538
958.405	0.490253
961.298	1.13008
964.19	0.545792
967.083	0.348555
969.976	0.112612
972.868	0.210255
975.761	0.111643
978.654	0.58345
981.546	1.1218
984.439	1.48885
987.332	0.83383
990.225	1.25087
993.117	1.67591
996.01	2.02718
998.903	1.45225
1001.79	2.24411
1004.69	2.65265
1007.58	2.92285
1010.47	2.81352
1013.37	2.21337
1016.26	1.67873
1019.15	2.303
1022.04	1.46206
1024.94	1.40829
1027.83	1.42853
1030.72	1.70055
1033.62	2.00273
1036.51	0.796604
1039.4	1.54879
1042.29	1.20428
1045.19	1.03073
1048.08	1.41025
1050.97	0.65683
1053.86	0.576571
1056.76	0.758877
1059.65	1.02568
1062.54	0.771767
1065.43	0.525417
1068.33	0.893089
1071.22	1.088
1074.11	1.0006
1077.01	1.91421
1079.9	0.615898
1082.79	0.847759
1085.68	0.989639
1088.58	1.41378
1091.47	0.806673
1094.36	0.393063
1097.25	1.11021
1100.15	0.841772
1103.04	0.852306
1105.93	0.313124
1108.83	0.316744
1111.72	0.27317
1114.61	0.264587
1117.5	0.074951
1120.4	0.347668
1123.29	0.252068
1126.18	0.124323
1129.07	0.099949
1131.97	0.283388
1134.86	0.454689
1137.75	2.09288
1140.64	3.21199
1143.54	5.45326
1146.43	8.33544
1149.32	11.867
1152.22	8.724
1155.11	3.3256
1158	0.976786
1160.89	1.37421
1163.79	0.702532
1166.68	0.807304
1169.57	0.421667
1172.46	0.876331
1175.36	0.424778
1178.25	0.227814
1181.14	0.0322
1184.04	0.248804
1186.93	0.059992
1189.82	0.043621
1192.71	0.161129
1195.61	0.438316
1198.5	0.169458
1201.39	0.375202
1204.28	0.376764
1207.18	0.292419
1210.07	0.56937
1212.96	0.420938
1215.86	0.176359
1218.75	0.492966
1221.64	0.496445
1224.53	0.816072
1227.43	0.966911
1230.32	1.33266
1233.21	1.63907
1236.1	2.7491
1239	4.13963
1241.89	4.28324
1244.78	3.83017
1247.67	3.5346
1250.57	2.18269
1253.46	1.40136
1256.35	1.09894
1259.25	0.663258
1262.14	1.02627
1265.03	0.660954
1267.92	0.323219
1270.82	0.15213
1273.71	0.0304732
1276.6	0.116568
1279.49	0.221843
1282.39	0.0943182
1285.28	0.173477
