Measurement: Raman, 532 nm, unoriented, Raman Data Processed
Mineral: Vuagnatite
Rruff sample: R050397
Ideal chemistry: CaAlSiO_4_(OH)
Locality: Red Mountain, Mendocino County, California, USA
Source: Marcus Origlieri
Description: Colorless prismatic crystals
Measured chemistry: Ca_1.00_Al_1.00_(Si_1.00_O_4_)(OH)
Raman shift (cm-1)	intensity
143.94	0
147.315	2.7889
150.69	12.5038
154.065	28.9047
157.439	46.1995
160.814	89.9513
164.189	169.588
167.564	136.523
170.939	41.8265
174.313	25.5749
177.688	48.8463
181.063	34.4491
184.438	16.6043
187.813	1.87172
191.187	2.75003
194.562	5.94223
197.937	12.0666
201.312	16.7493
204.687	16.1591
208.061	23.7654
211.436	38.7658
214.811	68.3278
218.186	131.604
221.561	61.3979
224.936	7.97881
228.31	1.36394
231.685	2.86108
235.06	2.49297
238.435	0.926163
241.81	0.498428
245.185	4.57756
248.559	9.95755
251.934	8.2307
255.309	11.4608
258.684	10.8766
262.059	19.1177
265.433	33.0152
268.808	75.3865
272.183	73.1862
275.558	21.5892
278.933	25.0779
282.308	33.8724
285.682	27.0326
289.057	6.10173
292.432	3.95102
295.807	1.49127
299.182	10.4682
302.556	0.27182
305.931	5.02304
309.306	27.1118
312.681	32.9223
316.056	44.9568
319.43	77.6498
322.805	158.954
326.18	243.265
329.555	84.7406
332.93	12.8247
336.305	6.43089
339.679	30.4988
343.054	45.4582
346.429	34.9919
349.804	54.1462
353.179	103.687
356.553	204.583
359.928	154.289
363.303	16.8274
366.678	3.65572
370.053	19.852
373.428	49.108
376.802	86.0892
380.177	143.619
383.552	233.128
386.927	344.571
390.302	283.93
393.676	220.053
397.051	215.501
400.426	198.41
403.801	156.541
407.176	63.3047
410.55	13.3471
413.925	0.458328
417.3	3.3087
420.675	11.9851
424.05	26.9761
427.425	50.6185
430.799	87.7383
434.174	114.484
437.549	73.8574
440.924	44.9903
444.299	20.7736
447.673	3.69153
451.048	2.95543
454.423	4.16937
457.798	3.36764
461.173	1.18477
464.548	3.71805
467.922	3.32042
471.297	1.25558
474.672	0.029739
478.047	0.703476
481.422	5.55022
484.796	13.0839
488.171	30.7039
491.546	51.6948
494.921	75.5708
498.296	111.844
501.671	171.427
505.045	167.703
508.42	63.3614
511.795	24.9067
515.17	12.2745
518.545	8.12766
521.919	11.1179
525.294	12.8122
528.669	16.184
532.044	19.9378
535.419	37.9338
538.794	76.0052
542.168	132.247
545.543	199.359
548.918	301.926
552.293	465.3
555.668	553.643
559.043	352.904
562.417	190.344
565.792	145.546
569.167	167.076
572.542	210.132
575.917	234.239
579.291	200.187
582.666	184.616
586.041	141.916
589.416	60.0102
592.791	28.338
596.165	16.1632
599.54	7.50941
602.915	4.25391
606.29	4.02896
609.665	3.51729
613.04	0.4207
616.414	0.751495
619.789	1.63347
623.164	2.70969
626.539	2.20113
629.914	0.927902
633.288	1.38092
636.663	3.04353
640.038	6.13832
643.413	9.42987
646.788	7.76851
650.163	3.79008
653.537	1.16579
656.912	2.30348
660.287	2.86238
663.662	4.41135
667.037	4.81929
670.411	4.87859
673.786	6.18118
677.161	4.52808
680.536	4.4776
683.911	2.94783
687.285	3.25917
690.66	3.74329
694.035	3.53006
697.41	5.13834
700.785	6.44475
704.16	5.22934
707.534	7.31795
710.909	7.42609
714.284	7.40065
717.659	6.90367
721.034	6.11392
724.409	6.22633
727.783	5.69986
731.158	4.61198
734.533	3.96635
737.908	2.26128
741.283	2.07384
744.657	2.14858
748.032	2.77345
751.407	0.229401
754.782	0.189056
758.157	0.92218
761.532	1.32013
764.906	0.123703
768.281	1.00372
771.656	3.80762
775.031	6.13017
778.406	10.8158
781.78	17.675
785.155	23.1115
788.53	28.974
791.905	36.4455
795.28	45.6813
798.654	58.7881
802.029	68.932
805.404	68.8746
808.779	51.8825
812.154	29.813
815.529	11.5225
818.903	1.92244
822.278	4.55566
825.653	5.74382
829.028	3.65712
832.403	2.03032
835.778	14.2844
839.152	37.8787
842.527	78.5229
845.902	146.019
849.277	240.808
852.652	372.481
856.026	545.344
859.401	657.501
862.776	599.555
866.151	448.119
869.526	386.856
872.9	333.25
876.275	309.019
879.65	310.263
883.025	250.406
886.4	190.288
889.774	180.165
893.149	205.4
896.524	291.419
899.899	479.603
903.274	771.888
906.649	1164.6
910.023	1741.99
913.398	2160.01
916.773	1495.46
920.148	680.353
923.523	326.587
926.898	185.299
930.272	122.42
933.647	83.4177
937.022	52.1862
940.397	30.5127
943.772	16.675
947.146	8.57217
950.521	2.24374
953.896	0.336212
957.271	0.92688
960.646	3.13164
964.02	4.53355
967.395	2.43761
970.77	0.087021
974.145	1.19147
977.52	0.522629
980.895	1.57356
984.269	2.38542
987.644	3.42531
991.019	3.76279
994.394	5.01405
997.769	6.08531
1001.14	7.16536
1004.52	8.25781
1007.89	8.59521
1011.27	8.02783
1014.64	6.86749
1018.02	6.34381
1021.39	4.30121
1024.77	2.91986
1028.14	3.15852
1031.52	2.68849
1034.89	2.01701
1038.27	2.15117
1041.64	2.11861
1045.02	1.53516
1048.39	1.92236
1051.77	2.49788
1055.14	3.22444
1058.52	1.5667
1061.89	1.11508
1065.27	1.61983
1068.64	1.56032
1072.02	1.96664
1075.39	1.0795
1078.76	1.50073
1082.14	3.04877
1085.51	2.07069
1088.89	1.9861
1092.26	1.90181
1095.64	1.78005
1099.01	3.13979
1102.39	2.65556
1105.76	1.63264
1109.14	0.850159
1112.51	1.67503
1115.89	1.65677
1119.26	0.538773
1122.64	0.69548
1126.01	1.14768
1129.39	2.68489
1132.76	5.42364
1136.14	12.9365
1139.51	27.1785
1142.89	44.9645
1146.26	76.686
1149.63	105.272
1153.01	45.1462
1156.38	15.0084
1159.76	8.00182
1163.13	4.17429
1166.51	3.91002
1169.88	2.99014
1173.26	1.46538
1176.63	1.05881
1180.01	0.045135
1183.38	0.49086
1186.76	0.224045
1190.13	0.100113
1193.51	0.236313
1196.88	0.273346
1200.26	0.842529
1203.63	0.124939
1207.01	0.059479
1210.38	0.374374
1213.76	0.063919
1217.13	0.699234
1220.51	0.061188
1223.88	0.575912
1227.26	0.824783
1230.63	2.97243
1234.01	3.92306
1237.38	6.1033
1240.76	10.1239
1244.13	7.61876
1247.51	10.6438
1250.88	3.98001
1254.26	1.50732
1257.63	0.52475
1261	1.16838
1264.38	0.040695
1267.75	0.535065
1271.13	1.11704
1274.5	0.474274
1277.88	0.428192
1281.25	1.58743
1284.63	2.01793
1288	1.40282
1291.38	1.09074
1294.75	0.783447
1298.13	1.7742
1301.5	1.23093
