Measurement: Raman, 514 nm, unoriented, Raman Data Processed
Mineral: Vuonnemite
Rruff sample: R050250
Ideal chemistry: Na_11_Ti^4+^Nb^5+^_2_(Si_2_O_7_)_2_(PO_4_)_2_O_3_F
Locality: Mont Saint-Hilaire, Rouville County, Quebec, Canada
Source: Marcus Origlieri
Description: Light yellow platy crystal, embedded in microcline.
Raman shift (cm-1)	intensity
103.124	0
107.3	376.769
111.473	869.819
115.644	1165.16
119.813	728.068
123.981	518.739
128.146	712.006
132.309	502.488
136.47	422.979
140.63	133.774
144.787	153.61
148.942	168.542
153.096	156.732
157.247	20.355
161.396	85.538
165.544	91.318
169.689	121.631
173.833	351.592
177.974	131.321
182.114	103.604
186.251	162.191
190.387	191.102
194.52	616.408
198.652	555.284
202.782	495.77
206.909	686.84
211.035	618.82
215.159	417.844
219.281	162.163
223.4	174.286
227.518	218.599
231.634	337.041
235.748	296.979
239.86	413.245
243.97	412.836
248.079	367.848
252.185	774.107
256.289	1172.1
260.391	1647.05
264.492	1912.67
268.59	1765.48
272.687	1383.27
276.781	1144.07
280.874	1205.57
284.964	1188.2
289.053	1482.62
293.14	1775.74
297.225	2072.24
301.308	2512.66
305.389	2929.63
309.468	3289.18
313.545	2714.21
317.62	2017.71
321.693	1512.63
325.765	1124.34
329.834	1008.74
333.902	950.484
337.967	1172.03
342.031	1176.91
346.093	1407.44
350.153	1701.06
354.21	1814.02
358.267	2125.06
362.321	2047.02
366.373	1713.94
370.423	1198.26
374.471	866.573
378.518	857.908
382.563	1014
386.605	1371.33
390.646	1854.79
394.685	2108.23
398.722	1941.84
402.757	1744.06
406.79	1511.08
410.821	1966.9
414.851	2316.69
418.878	2642.24
422.904	2223.09
426.927	1922.02
430.949	1702.03
434.969	2233.39
438.987	2106.03
443.003	2059.8
447.018	2262.51
451.03	2170.03
455.041	1579.29
459.049	1022.26
463.056	593.907
467.061	340.621
471.064	202.186
475.065	3.575
479.064	3.643
483.062	59.496
487.057	73.789
491.051	193.883
495.043	50.199
499.032	51.447
503.02	8.448
507.007	102.585
510.991	39.813
514.973	109.572
518.954	264.203
522.933	193.381
526.91	342.655
530.885	344.671
534.858	300.556
538.829	120.699
542.799	263.099
546.766	283.688
550.732	309.498
554.696	368.569
558.658	738.906
562.618	1084.51
566.576	1827.25
570.533	3241.31
574.488	6622.34
578.44	9097.38
582.391	7421.77
586.341	5103.19
590.288	3544.68
594.233	2535.06
598.177	1960.38
602.119	1521.36
606.059	1280.03
609.997	1452.65
613.933	1717.08
617.868	1219.48
621.801	453.083
625.731	573.281
629.66	328.314
633.588	168.014
637.513	213.004
641.437	257.752
645.358	108.41
649.278	167.582
653.196	349.875
657.113	75.852
661.027	157.283
664.94	178.229
668.851	13.098
672.76	6.795
676.667	15.656
680.572	182.348
684.476	274.111
688.378	348.992
692.278	791.857
696.176	1194.29
700.072	2588.45
703.967	3896.98
707.86	4482.51
711.751	2681.28
715.64	1433.95
719.527	582.887
723.413	289.096
727.297	173.498
731.179	126.904
735.059	233.896
738.937	82.375
742.814	155.113
746.689	184.154
750.562	167.182
754.433	39.545
758.303	248.92
762.17	51.451
766.036	119.246
769.901	301.398
773.763	361.945
777.624	302.963
781.482	274.445
785.339	313.629
789.195	336.246
793.048	253.01
796.9	259.525
800.75	545.162
804.598	1020.01
808.445	1094.99
812.289	1337.59
816.132	1989.12
819.973	2964.76
823.813	4558.77
827.65	5938.98
831.486	6945.7
835.32	7480.16
839.152	7417.85
842.983	7532.39
846.812	6889.4
850.639	6430.46
854.464	5958.54
858.288	6178.76
862.11	6811.08
865.93	6689.49
869.748	6971.03
873.564	8149.44
877.379	11598
881.192	17989.1
885.004	23597.8
888.813	20204.9
892.621	14242.6
896.427	10424.5
900.232	7664.22
904.034	5993.26
907.835	5283.08
911.634	6201.72
915.432	8828.8
919.227	10737.1
923.021	11102.1
926.813	10927.8
930.604	10775
934.393	8972.73
938.18	6962.01
941.965	4710.43
945.749	4011.16
949.53	4143.1
953.311	4494.75
957.089	3937.18
960.866	3335.47
964.641	2828.8
968.414	3688.81
972.185	4843.17
975.955	4024.64
979.723	2851.67
983.49	2145.96
987.254	1572
991.017	1054.16
994.779	1050.32
998.538	1217.17
1002.3	904.627
1006.05	1006.6
1009.81	901.018
1013.56	902.953
1017.31	1236.43
1021.06	1331.87
1024.81	1757.51
1028.55	1769.2
1032.3	1746.61
1036.04	2344.6
1039.78	2810.03
1043.52	1723.75
1047.26	804.508
1050.99	431.092
1054.73	832.811
1058.46	816.955
1062.19	684.244
1065.92	483.428
1069.65	360.006
1073.37	848.195
1077.1	939.285
1080.82	1577.58
1084.54	2091.03
1088.26	1692.78
1091.97	1118.3
1095.69	710.867
1099.4	644.689
1103.12	519.582
1106.83	24.637
1110.54	328.562
1114.24	228.322
1117.95	257.396
1121.65	322.248
1125.35	131.537
1129.06	281.799
1132.75	85.754
1136.45	368.018
1140.15	81.484
1143.84	207.771
1147.53	70.566
1151.22	167.355
1154.91	279.742
1158.6	39.512
1162.28	271.125
1165.97	79.762
1169.65	175.195
1173.33	78.102
1177.01	132.121
1180.69	47.422
1184.36	246.859
1188.04	334.555
1191.71	7.84
1195.38	254.84
1199.05	36.312
1202.71	429.574
1206.38	277.172
1210.04	385.512
1213.71	208.879
1217.37	71.312
1221.03	126.805
1224.68	325.609
1228.34	122.055
1231.99	256.805
1235.65	320.504
1239.3	340.949
1242.95	209.148
1246.59	294.699
1250.24	333.02
1253.88	164.375
1257.53	38.164
1261.17	135.73
1264.81	365.242
1268.45	349.035
1272.08	330.512
1275.72	289.012
1279.35	397.219
1282.98	315.086
1286.61	182.59
1290.24	2.383
1293.87	317.816
1297.49	278.875
1301.11	272.707
1304.73	267.828
1308.36	169.566
1311.97	170.5
1315.59	493.848
1319.2	107.238
1322.82	7.852
1326.43	374.875
1330.04	326.891
1333.65	270.551
1337.26	395.547
1340.86	381.691
1344.47	213.008
1348.07	479.109
1351.67	716.613
1355.27	534.008
1358.87	581.953
1362.46	182.875
1366.06	270.918
1369.65	281.227
1373.24	197.738
1376.83	153.742
1380.42	309.191
1384	183.531
1387.59	32.465
1391.17	0
