Measurement: Raman, 532 nm, unoriented, Raman Data Processed
Mineral: Vuonnemite
Rruff sample: R050250
Ideal chemistry: Na_11_Ti^4+^Nb^5+^_2_(Si_2_O_7_)_2_(PO_4_)_2_O_3_F
Locality: Mont Saint-Hilaire, Rouville County, Quebec, Canada
Source: Marcus Origlieri
Description: Light yellow platy crystal, embedded in microcline.
Raman shift (cm-1)	intensity
136.172	0
139.547	6.31146
142.922	11.3913
146.297	11.5093
149.672	20.3397
153.046	39.2486
156.421	37.3446
159.796	34.0643
163.171	50.0469
166.546	68.8668
169.921	87.557
173.295	101.671
176.67	79.1442
180.045	41.5215
183.42	14.0321
186.795	2.44574
190.169	5.33136
193.544	2.14508
196.919	1.18713
200.294	2.25085
203.669	0.732605
207.043	4.00641
210.418	19.4816
213.793	34.2527
217.168	22.2233
220.543	10.2593
223.918	7.45099
227.292	15.2169
230.667	17.4287
234.042	12.6279
237.417	8.33874
240.792	16.8111
244.167	22.7004
247.541	36.7554
250.916	59.6443
254.291	94.678
257.666	128.805
261.041	175.393
264.415	209.723
267.79	215.606
271.165	187.992
274.54	170.553
277.915	171.193
281.289	187.223
284.664	208.958
288.039	220.004
291.414	220.114
294.789	206.731
298.163	193.14
301.538	185.975
304.913	197.043
308.288	203.628
311.663	191.522
315.038	153.322
318.412	108.071
321.787	67.5456
325.162	30.6066
328.537	15.4771
331.912	1.24323
335.286	6.51355
338.661	5.1557
342.036	1.98492
345.411	1.60468
348.786	4.13501
352.161	7.6283
355.535	17.5738
358.91	28.0349
362.285	24.9636
365.66	13.1317
369.035	4.61768
372.409	8.60095
375.784	22.3779
379.159	63.1465
382.534	112.022
385.909	166.788
389.284	216.436
392.658	269.315
396.033	292.168
399.408	264.431
402.783	219.987
406.158	218.507
409.532	256.202
412.907	321.196
416.282	388.097
419.657	413.264
423.032	386.586
426.406	344.832
429.781	339.995
433.156	353.752
436.531	347.38
439.906	339.353
443.281	347.443
446.655	357.778
450.03	356.675
453.405	304.88
456.78	220.955
460.155	138.596
463.529	79.8893
466.904	39.9363
470.279	14.0663
473.654	6.89288
477.029	1.43921
480.404	7.06628
483.778	9.55713
487.153	8.62469
490.528	2.53619
493.903	4.82355
497.278	16.0074
500.652	18.1495
504.027	31.0321
507.402	40.17
510.777	42.6164
514.152	51.2796
517.527	65.1681
520.901	81.4302
524.276	101.804
527.651	106.517
531.026	95.4697
534.401	76.9739
537.775	57.3796
541.15	36.2124
544.525	26.8711
547.9	19.7741
551.275	30.046
554.649	56.3603
558.024	99.4973
561.399	190.959
564.774	335.492
568.149	512.11
571.524	781.202
574.898	1140.9
578.273	1382.99
581.648	1142.3
585.023	791.928
588.398	533.845
591.773	376.469
595.147	278.245
598.522	216.452
601.897	177.468
605.272	156.42
608.647	168.493
612.021	201.217
615.396	199.519
618.771	102.869
622.146	40.3261
625.521	13.0754
628.895	0.279541
632.27	7.59869
635.645	2.83881
639.02	1.50684
642.395	6.07758
645.77	0.300537
649.144	0.829773
652.519	2.82104
655.894	6.05493
659.269	7.48621
662.644	13.1226
666.019	19.1855
669.393	34.0329
672.768	40.3097
676.143	51.294
679.518	70.2477
682.893	93.2361
686.267	118.307
689.642	174.559
693.017	248.367
696.392	330.382
699.767	444.744
703.141	554.538
706.516	590.377
709.891	479.558
713.266	305.465
716.641	183.721
720.015	117.761
723.39	97.1797
726.765	92.184
730.14	91.5093
733.515	90.6463
736.89	96.4401
740.264	89.696
743.639	86.7841
747.014	83.438
750.389	72.3867
753.764	62.7728
757.139	60.8115
760.513	54.6624
763.888	47.8426
767.263	44.5614
770.638	33.8989
774.013	17.5024
777.387	3.51758
780.762	8.35059
784.137	16.056
787.512	30.9923
790.887	31.1242
794.261	28.0409
797.636	7.7854
801.011	15.2816
804.386	33.0526
807.761	52.2504
811.136	77.1649
814.51	132.481
817.885	225.696
821.26	364.078
824.635	541.991
828.01	704.443
831.385	830.87
834.759	902.254
838.134	919.132
841.509	878.279
844.884	792.524
848.259	652.787
851.633	506.4
855.008	425.931
858.383	439.476
861.758	483.567
865.133	484.867
868.507	478.173
871.882	557.114
875.257	741.281
878.632	1010.81
882.007	1334.39
885.381	1510.85
888.756	1224.97
892.131	803.203
895.506	527.948
898.881	305.61
902.256	127.651
905.63	62.9175
909.005	176.57
912.38	436.215
915.755	813.242
919.13	1153.38
922.505	1242.35
925.879	1108.95
929.254	946.152
932.629	781.076
936.004	577.072
939.379	374.892
942.753	226.571
946.128	149.636
949.503	118.912
952.878	107.004
956.253	82.2534
959.627	49.5667
963.002	48.8691
966.377	123.79
969.752	251.78
973.127	369.503
976.501	243.317
979.876	91.219
983.251	13.6736
986.626	24.2852
990.001	37.1306
993.376	41.3619
996.75	31.3273
1000.12	3.68665
1003.5	35.1663
1006.88	43.2524
1010.25	46.5078
1013.62	66.0596
1017	91.1516
1020.37	130.708
1023.75	151.046
1027.12	174.257
1030.5	193.151
1033.87	197.606
1037.25	206.834
1040.62	188.323
1044	128.061
1047.37	82.9209
1050.75	65.971
1054.12	67.2061
1057.5	62.2037
1060.87	49.8636
1064.25	36.5597
1067.62	35.2102
1071	37.1659
1074.37	58.6984
1077.75	81.994
1081.12	103.026
1084.5	119.498
1087.87	106.93
1091.24	89.6533
1094.62	56.2394
1097.99	37.1411
1101.37	23.0947
1104.74	20.2529
1108.12	15.2522
1111.49	10.0109
1114.87	17.5614
1118.24	13.936
1121.62	8.53369
1124.99	3.9165
1128.37	0.723145
1131.74	7.55981
1135.12	0.965088
1138.49	3.04468
1141.87	1.1228
1145.24	10.231
1148.62	8.38501
1151.99	13.9619
1155.37	13.8015
1158.74	20.8672
1162.12	18.3325
1165.49	22.3047
1168.87	21.5164
1172.24	13.0845
1175.62	16.2461
1178.99	19.709
1182.37	16.1819
1185.74	19.9014
1189.12	18.9609
1192.49	20.2625
1195.87	12.1545
1199.24	8.67163
1202.61	5.08154
1205.99	10.3887
1209.36	21.176
1212.74	13.7437
1216.11	20.9983
1219.49	22.6768
1222.86	18.1043
1226.24	12.4573
1229.61	15.7241
1232.99	10.0332
1236.36	1.76318
1239.74	1.48267
1243.11	1.49487
1246.49	6.76782
1249.86	6.55835
1253.24	7.78711
1256.61	0.414551
1259.99	4.64307
1263.36	1.64014
1266.74	0.728271
1270.11	3.81445
1273.48	10.3518
1276.86	5.55493
1280.23	6.12549
1283.61	9.74951
1286.98	7.34009
1290.36	6.64526
1293.73	4.88965
1297.11	10.876
1300.48	1.93018
1303.86	0.666504
