Measurement: Raman, 532 nm, unoriented, Raman Data Processed
Mineral: Vuonnemite
Rruff sample: R070690
Ideal chemistry: Na_11_Ti^4+^Nb^5+^_2_(Si_2_O_7_)_2_(PO_4_)_2_O_3_F
Locality: Yubileinaya (Yubileinoye; Jubilejnaja) pegmatite,  Karnasurt Mt, Lovozero Massif, Kola Peninsula,  Murmanskaja Oblast', Northern Region, Russia
Source: Michael Scott
Description: Cream colored platy massive associated with pinkish ussingite, light yellow-green sphalerite, and brown elongated tabular serandite
Raman shift (cm-1)	intensity
164.125	0
167.018	113.381
169.911	295.903
172.803	420.798
175.696	446.405
178.589	277.107
181.482	94.0693
184.374	50.5195
187.267	43.8965
190.16	28.1836
193.052	43.3818
195.945	222.428
198.838	151.353
201.731	101.399
204.623	154.329
207.516	176.465
210.409	326.339
213.301	350.596
216.194	93.1758
219.087	55.7627
221.979	0.606445
224.872	10.3516
227.765	126.731
230.657	3.86621
233.55	53.5107
236.443	18.7529
239.336	27.2002
242.228	104.968
245.121	127.56
248.014	316.494
250.906	575.84
253.799	833.779
256.692	1169.79
259.584	1490.71
262.477	1784.68
265.37	1866.69
268.263	1611.65
271.155	1333.23
274.048	1270.86
276.941	1364.77
279.833	1607.7
282.726	1858.6
285.619	1994.65
288.512	2071.7
291.404	2060.07
294.297	1894.08
297.19	1943.21
300.082	2031.64
302.975	2300.24
305.868	2290.76
308.76	2171.51
311.653	1703.96
314.546	1329.62
317.438	933.613
320.331	680.826
323.224	411.66
326.117	287.932
329.009	144.644
331.902	93.8828
334.795	139.797
337.687	183.207
340.58	134.684
343.473	267.16
346.365	321.225
349.258	542.508
352.151	581.447
355.044	528.898
357.936	355.031
360.829	199.221
363.722	84.6428
366.614	46.5118
369.507	50.5943
372.4	94.7688
375.293	213.191
378.185	499.81
381.078	1018.36
383.971	1512.13
386.863	2036.4
389.756	2417.18
392.649	2624.73
395.541	2485.03
398.434	2021.65
401.327	1789.52
404.219	1809.08
407.112	2132.69
410.005	2535.36
412.898	2966.1
415.79	3266.62
418.683	2998.49
421.576	2511.23
424.469	2249.19
427.361	2073.14
430.254	2172.66
433.147	2175.99
436.039	2286.4
438.932	2306.82
441.825	2633.71
444.717	2818.27
447.61	2919.03
450.503	2837.02
453.396	2394.99
456.288	1566.89
459.181	1078.97
462.074	576.625
464.966	369.801
467.859	225.973
470.752	70.666
473.644	32.8965
476.537	6.09961
479.43	8.96875
482.322	42.9629
485.215	46.373
488.108	14.2207
491.001	76.5762
493.893	35.8418
496.786	7.80859
499.679	103.301
502.571	151.715
505.464	138.805
508.357	322.441
511.25	412.303
514.142	542.441
517.035	662.488
519.928	890.713
522.82	952.625
525.713	985.041
528.606	987.451
531.498	854.977
534.391	641.973
537.284	479.406
540.177	356.147
543.069	354.072
545.962	321.832
548.855	387.014
551.747	418.434
554.64	568.111
557.533	792.461
560.425	1270.54
563.318	2243.56
566.211	3885.34
569.104	5700.8
571.996	7768.89
574.889	9625.9
577.782	9931.13
580.674	7722.64
583.567	5279.88
586.46	3808.38
589.352	2821.62
592.245	2031.71
595.138	1547.66
598.031	1206.06
600.923	1229.24
603.816	1067.39
606.709	1413.16
609.601	1580.75
612.494	1768.94
615.387	1362.49
618.279	639.221
621.172	220.281
624.065	69.543
626.958	57.3008
629.85	89.459
632.743	38.3652
635.636	29.8301
638.528	11.7773
641.421	10.2617
644.314	75.3262
647.207	60.3555
650.099	7.62109
652.992	110.812
655.885	186.938
658.777	90.584
661.67	69.8672
664.563	176.461
667.455	163.027
670.348	333.697
673.241	203.463
676.134	306.098
679.026	285.705
681.919	464.688
684.812	600.596
687.704	797.994
690.597	1113.26
693.49	1535.2
696.382	1877.1
699.275	2560.98
702.168	2948.42
705.061	3366.37
707.953	3083.65
710.846	2528.16
713.739	1765.06
716.631	1387.52
719.524	1030.21
722.417	885.594
725.309	778.686
728.202	847.953
731.095	814.67
733.987	952.463
736.88	882.561
739.773	988.496
742.666	982.629
745.558	928.549
748.451	823.174
751.344	895.981
754.236	867.43
757.129	690.271
760.022	749.123
762.915	731.779
765.807	737.518
768.7	603.006
771.593	541.682
774.485	409.654
777.378	278.602
780.271	189.967
783.163	210.721
786.056	107.808
788.949	6.86894
791.842	120.411
794.734	20.9142
797.627	85.7156
800.52	111.094
803.412	112.8
806.305	189.523
809.198	443.625
812.091	474.505
814.983	537.159
817.876	1059.55
820.769	1720.99
823.661	2736.77
826.554	3943.49
829.447	5373.4
832.339	6985.13
835.232	9017.22
838.125	10698.4
841.018	11804.7
843.91	12326.9
846.803	11357
849.696	10294.2
852.588	9760.43
855.481	9775.15
858.374	9821.92
861.266	9386.35
864.159	7983.6
867.052	6547.35
869.944	6378.48
872.837	7931.45
875.73	11490.1
878.623	15713.7
881.515	19506.5
884.408	20760.8
887.301	16360
890.193	9555.4
893.086	5464.56
895.979	3632.34
898.871	3372.6
901.764	4134.98
904.657	5568.25
907.55	8183.49
910.442	11930.1
913.335	15730.7
916.228	18322.5
919.12	18609.5
922.013	16222.2
924.906	12514.8
927.798	9703.77
930.691	7209.8
933.584	4658.86
936.477	2812.86
939.369	1882.71
942.262	1373.62
945.155	1287.6
948.047	1509.6
950.94	1587.29
953.833	1257.78
956.726	767.346
959.618	354.685
962.511	957.264
965.404	1768.95
968.296	2855.7
971.189	3288.22
974.082	2397.78
976.974	1028.04
979.867	128.505
982.76	82.5751
985.653	60.5533
988.545	50.0606
991.438	54.3358
994.331	60.068
997.223	109.969
1000.12	203.869
1003.01	442.522
1005.9	591.34
1008.79	519.619
1011.69	681.498
1014.58	1080.83
1017.47	1336.86
1020.37	1715.93
1023.26	1891.88
1026.15	1637.18
1029.04	1388.06
1031.94	1431.74
1034.83	1619.74
1037.72	1672.55
1040.61	1166.27
1043.51	969.574
1046.4	784.5
1049.29	641.49
1052.18	736.756
1055.08	665.523
1057.97	650.711
1060.86	444.096
1063.76	221.346
1066.65	134.519
1069.54	85.1191
1072.43	250.012
1075.33	370.133
1078.22	807.295
1081.11	886.443
1084	1070.41
1086.9	1033.26
1089.79	964.678
1092.68	574.088
1095.58	344.473
1098.47	247.25
1101.36	184.99
1104.25	66.6113
1107.15	186.467
1110.04	70.1738
1112.93	13.0215
1115.82	86.6523
1118.72	186.805
1121.61	121.867
1124.5	28.3066
1127.39	84.7891
1130.29	24.3105
1133.18	52.9336
1136.07	16.0586
1138.97	126.297
1141.86	86.8242
1144.75	163.09
1147.64	94.0019
1150.54	278.541
1153.43	79.2969
1156.32	33.6152
1159.21	0.925781
1162.11	48.2012
1165	86.1758
1167.89	200.932
1170.79	77.9453
1173.68	48.5762
1176.57	68.125
1179.46	92.1856
1182.36	41.9512
1185.25	97.0898
1188.14	106.068
1191.03	111.738
1193.93	161.621
1196.82	121.172
1199.71	130.481
1202.61	133.607
1205.5	30.1387
1208.39	109.154
1211.28	169.414
1214.18	165.76
1217.07	113.951
1219.96	79.2559
1222.85	164.129
1225.75	121.352
1228.64	19.332
1231.53	194.883
1234.42	61.6504
1237.32	85.8828
1240.21	53.7793
1243.1	1.59961
1246	67.666
1248.89	8.47656
1251.78	101.291
1254.67	99.3672
1257.57	125.857
1260.46	131.994
1263.35	124.002
1266.24	192.109
1269.14	122.57
1272.03	167.102
1274.92	145.234
1277.82	178.789
1280.71	176.57
1283.6	103.945
1286.49	46.1172
1289.39	152.394
1292.28	59.375
1295.17	65.0859
1298.06	48.9219
1300.96	56.2539
1303.85	33.4531
1306.74	0
