Measurement: Raman, 780 nm, unoriented, Raman Data Processed
Mineral: Vuonnemite
Rruff sample: R050250
Ideal chemistry: Na_11_Ti^4+^Nb^5+^_2_(Si_2_O_7_)_2_(PO_4_)_2_O_3_F
Locality: Mont Saint-Hilaire, Rouville County, Quebec, Canada
Source: Marcus Origlieri
Description: Light yellow platy crystal, embedded in microcline.
Raman shift (cm-1)	intensity
140.083	0
142.976	0.737213
145.869	0.968689
148.761	0.113312
151.654	2.39307
154.547	4.98468
157.439	4.87781
160.332	10.5001
163.225	16.2218
166.117	20.5326
169.01	26.9719
171.903	30.1818
174.796	30.7598
177.688	26.2918
180.581	22.5784
183.474	22.2225
186.366	26.7743
189.259	36.5911
192.152	41.9592
195.044	38.3657
197.937	38.6483
200.83	40.4383
203.722	43.2783
206.615	49.6918
209.508	52.4957
212.401	54.8097
215.293	47.4983
218.186	36.8443
221.079	26.2674
223.971	18.3175
226.864	12.6823
229.757	4.24918
232.649	2.84158
235.542	3.76471
238.435	2.76758
241.327	10.7821
244.22	20.6681
247.113	35.7627
250.006	52.4604
252.898	67.8107
255.791	79.1404
258.684	88.8135
261.576	94.3938
264.469	90.9983
267.362	84.5779
270.255	71.0688
273.147	61.061
276.04	46.0167
278.933	41.2904
281.825	33.2777
284.718	30.9178
287.611	31.4706
290.503	36.4731
293.396	40.3127
296.289	45.225
299.182	49.7156
302.074	59.7007
304.967	68.0949
307.86	57.081
310.752	51.7674
313.645	38.66
316.538	20.5098
319.43	1.31885
322.323	13.2545
325.216	17.6902
328.109	18.0716
331.001	2.91095
333.894	17.3744
336.787	38.9504
339.679	72.6702
342.572	98.5339
345.465	126.049
348.357	144.545
351.25	156.921
354.143	153.011
357.036	140.109
359.928	125.787
362.821	97.3256
365.714	71.0397
368.606	46.3878
371.499	27.3881
374.392	15.0142
377.284	16.3029
380.177	18.0342
383.07	38.0859
385.962	50.7747
388.855	76.1
391.748	112.421
394.641	147.223
397.533	200.781
400.426	252.031
403.319	323.05
406.211	409.572
409.104	502.336
411.997	595.625
414.889	673.77
417.782	724.14
420.675	735.068
423.568	714.363
426.46	646.775
429.353	571.253
432.246	501.825
435.138	419.35
438.031	365.065
440.924	317.995
443.817	297.461
446.709	275.824
449.602	264.979
452.495	243.613
455.387	221.85
458.28	202.029
461.173	176.528
464.065	152.504
466.958	128.595
469.851	100.143
472.743	73.2421
475.636	54.898
478.529	42.921
481.422	30.4764
484.314	20.4216
487.207	19.4766
490.1	12.63
492.992	10.5908
495.885	4.4447
498.778	3.29095
501.671	1.01679
504.563	4.69757
507.456	0.079529
510.349	3.15595
513.241	4.55078
516.134	6.76642
519.027	2.96374
521.919	0.4646
524.812	0.350464
527.705	0.703003
530.597	3.5896
533.49	13.3297
536.383	12.0323
539.276	10.2849
542.168	0.496338
545.061	2.01581
547.954	19.2258
550.846	32.2166
553.739	57.148
556.632	82.1745
559.524	120.652
562.417	164.334
565.31	206.895
568.203	244.355
571.095	290.403
573.988	333.058
576.881	350.771
579.773	325.921
582.666	284.723
585.559	253.462
588.452	238.477
591.344	223.015
594.237	203.333
597.13	193.483
600.022	188.932
602.915	182.541
605.808	180.725
608.7	174.706
611.593	173.259
614.486	165.541
617.379	139.306
620.271	120.055
623.164	99.2463
626.057	85.5046
628.949	69.5928
631.842	56.09
634.735	45.2783
637.627	29.9742
640.52	21.345
643.413	10.3707
646.306	5.7533
649.198	3.05731
652.091	2.11093
654.984	5.24548
657.876	4.10007
660.769	11.2034
663.662	14.9897
666.554	21.3682
669.447	29.4912
672.34	38.1068
675.232	44.9332
678.125	54.2567
681.018	62.9014
683.911	80.0826
686.803	95.3772
689.696	104.647
692.589	115.142
695.481	128.323
698.374	135.031
701.267	142.666
704.159	141.895
707.052	124.265
709.945	100.7
712.838	75.1612
715.73	52.9681
718.623	41.5786
721.516	29.972
724.408	20.3256
727.301	15.6124
730.194	7.87268
733.087	3.45099
735.979	0.376343
738.872	0.897797
741.765	3.25214
744.657	1.9071
747.55	2.81235
750.443	5.28891
753.335	3.5939
756.228	4.60361
759.121	0.665436
762.014	0.802338
764.906	0.162231
767.799	1.84842
770.692	2.95996
773.584	5.93189
776.477	6.7793
779.37	6.09369
782.262	8.936
785.155	9.51483
788.048	9.04663
790.941	9.11923
793.833	8.64468
796.726	8.82245
799.619	9.34558
802.511	9.84174
805.404	11.3148
808.297	11.9499
811.189	17.5854
814.082	28.5553
816.975	41.7893
819.867	57.6476
822.76	76.881
825.653	98.1791
828.546	112.356
831.438	118.266
834.331	119.118
837.224	116.477
840.116	105.746
843.009	94.0236
845.902	82.7069
848.794	67.0454
851.687	58.5733
854.58	53.8967
857.473	54.5928
860.365	63.355
863.258	70.3186
866.151	83.2724
869.043	98.9231
871.936	129.207
874.829	168.285
877.721	211.044
880.614	248.137
883.507	265.804
886.4	236.811
889.292	189.6
892.185	141.564
895.078	109.531
897.97	76.5201
900.863	50.9456
903.756	39.6597
906.649	43.5441
909.541	60.418
912.434	83.7448
915.327	114.2
918.219	130.296
921.112	131.42
924.005	110.455
926.897	90.0644
929.79	71.117
932.683	50.6238
935.575	31.3801
938.468	12.9907
941.361	1.099
944.254	5.18613
947.146	8.04187
950.039	5.46729
952.932	4.46368
955.824	1.21072
958.717	10.0876
961.61	24.4038
964.502	41.318
967.395	62.2935
970.288	76.4159
973.181	72.3641
976.073	48.2171
978.966	32.2566
981.859	26.7163
984.751	24.0919
987.644	24.763
990.537	27.7845
993.429	25.2991
996.322	28.1673
999.215	29.2159
1002.11	30.2837
1005	25.3054
1007.89	19.2248
1010.79	14.7119
1013.68	10.7255
1016.57	11.735
1019.46	11.2852
1022.36	10.8117
1025.25	6.55643
1028.14	5.32581
1031.04	1.67221
1033.93	1.21967
1036.82	1.25442
1039.71	0.448944
1042.61	1.24625
1045.5	5.01367
1048.39	8.15564
1051.28	12.6504
1054.18	15.3481
1057.07	17.0829
1059.96	15.4911
1062.85	8.96021
1065.75	7.87015
1068.64	6.31467
1071.53	10.1288
1074.42	11.6012
1077.32	14.2902
1080.21	16.3914
1083.1	18.3425
1086	16.6468
1088.89	13.3422
1091.78	14.2607
1094.67	9.4288
1097.57	8.42892
1100.46	6.51633
1103.35	9.06802
1106.24	6.242
1109.14	4.38965
1112.03	4.82175
1114.92	3.38043
1117.82	2.03558
1120.71	1.87763
1123.6	2.96967
1126.49	1.68527
1129.39	2.71304
1132.28	0.910889
1135.17	5.88007
1138.06	1.54938
1140.96	3.79382
1143.85	6.37579
1146.74	6.08002
1149.63	8.31921
1152.53	11.1382
1155.42	14.006
1158.31	13.3665
1161.21	10.0627
1164.1	13.8887
1166.99	10.8884
1169.88	10.7637
1172.78	5.57275
1175.67	5.37311
1178.56	5.69769
1181.45	1.00366
1184.35	3.49884
