Measurement: Raman, 785 nm, unoriented, Raman Data Processed
Mineral: Vuonnemite
Rruff sample: R070690
Ideal chemistry: Na_11_Ti^4+^Nb^5+^_2_(Si_2_O_7_)_2_(PO_4_)_2_O_3_F
Locality: Yubileinaya (Yubileinoye; Jubilejnaja) pegmatite,  Karnasurt Mt, Lovozero Massif, Kola Peninsula,  Murmanskaja Oblast', Northern Region, Russia
Source: Michael Scott
Description: Cream colored platy massive associated with pinkish ussingite, light yellow-green sphalerite, and brown elongated tabular serandite
Raman shift (cm-1)	intensity
171.642	0
174.534	0.697266
177.427	66.1426
180.32	94.9082
183.212	166.216
186.105	148.216
188.998	159.626
191.891	185.519
194.783	256.181
197.676	239.864
200.569	218.752
203.461	74.4678
206.354	87.7275
209.247	24.5593
212.139	2.56281
215.032	21.3545
217.925	21.041
220.818	85.1084
223.71	115.454
226.603	101.632
229.496	140.87
232.388	84.9219
235.281	140.938
238.174	111.219
241.066	32.917
243.959	36.2783
246.852	12.2949
249.745	151.359
252.637	98.3096
255.53	35.458
258.423	111.011
261.315	329.482
264.208	385.131
267.101	549.12
269.993	482.394
272.886	615.565
275.779	502.034
278.672	642.412
281.564	789.798
284.457	919.155
287.35	858.795
290.242	833.333
293.135	721.852
296.028	539.445
298.921	465.219
301.813	459.512
304.706	584.006
307.599	561.688
310.491	537.203
313.384	576.635
316.277	439.869
319.169	436.25
322.062	556.613
324.955	765.762
327.847	939.965
330.74	1356.35
333.633	1827.19
336.526	2299.76
339.418	2730.12
342.311	2917.95
345.204	3002.89
348.096	2806.14
350.989	2551.25
353.882	2144.02
356.774	1719.4
359.667	1113.29
362.56	707.51
365.452	412.25
368.345	179.816
371.238	147.678
374.131	113.262
377.023	157.807
379.916	165.34
382.809	337.713
385.701	338.147
388.594	508.797
391.487	554.324
394.38	531.83
397.272	453.103
400.165	270.139
403.058	113.636
405.95	140.098
408.843	248.39
411.736	493.11
414.628	540.046
417.521	725.714
420.414	620.313
423.307	322.294
426.199	283.846
429.092	309.191
431.985	251.197
434.877	173.842
437.77	203.215
440.663	175.732
443.555	306.143
446.448	394.325
449.341	373.013
452.234	269.264
455.126	226.856
458.019	65.291
460.912	136.764
463.804	152.607
466.697	78.2383
469.59	36.6904
472.483	29.8691
475.375	85.7978
478.268	141.2
481.161	241.337
484.053	374.046
486.946	492.885
489.839	697.946
492.731	753.745
495.624	800.13
498.517	848.604
501.409	932.416
504.302	990.068
507.195	987.148
510.088	1036.37
512.98	958.355
515.873	1162.37
518.766	954.184
521.658	999.026
524.551	818.93
527.444	611.135
530.337	576.981
533.229	521.408
536.122	476.49
539.015	300.37
541.907	268.252
544.8	195.048
547.693	166.1
550.585	117.793
553.478	81.3584
556.371	10.6729
559.263	102.731
562.156	217.481
565.049	393.017
567.942	674.036
570.834	1138.56
573.727	1713.29
576.62	2212.87
579.512	2267.8
582.405	1696.41
585.298	1133.57
588.19	792.029
591.083	581.76
593.976	378.976
596.869	348.426
599.761	409.58
602.654	384.856
605.547	326.435
608.439	502.949
611.332	616.785
614.225	690.533
617.117	554.983
620.01	332.333
622.903	241.108
625.795	145.3
628.688	163.94
631.581	122.039
634.474	119.496
637.366	53.21
640.259	67.7393
643.152	22.1611
646.044	4.61426
648.937	35.1494
651.83	31.0684
654.722	55.6572
657.615	5.60742
660.508	16.3535
663.401	22.498
666.293	44.3057
669.186	41.7139
672.079	39.2559
674.971	111.529
677.864	121.094
680.757	181.608
683.649	220.256
686.542	253.366
689.435	284.431
692.328	478.588
695.22	572.498
698.113	855.697
701.006	1039.26
703.898	1277.5
706.791	1481.08
709.684	1337.38
712.577	950.467
715.469	762.975
718.362	655.261
721.255	512.325
724.147	483.905
727.04	347.887
729.933	427.661
732.825	351.583
735.718	348.951
738.611	359.139
741.504	398.684
744.396	377.55
747.289	369.303
750.182	321.274
753.074	298.692
755.967	273.641
758.86	266.164
761.752	216.055
764.645	102.456
767.538	148.578
770.431	133.795
773.323	103.695
776.216	51.7129
779.109	13.0801
782.001	9.02539
784.894	102.152
787.787	3.26562
790.679	86.4082
793.572	9.52539
796.465	30.2285
799.357	21.8477
802.25	7.70019
805.143	8.75
808.036	34.3418
810.928	65.9981
813.821	134.266
816.714	279.8
819.606	312.299
822.499	382.123
825.392	579.779
828.284	655.404
831.177	935.787
834.07	1267.44
836.963	1626.46
839.855	1858.79
842.748	2093.59
845.641	2067.98
848.533	1839.52
851.426	1535.63
854.319	1424.27
857.212	1512.03
860.104	1508.11
862.997	1359.46
865.89	1101.85
868.782	837.343
871.675	892.069
874.568	1229.68
877.46	1839.62
880.353	2857.64
883.246	3741.95
886.139	3894.42
889.031	2518.73
891.924	1239.77
894.817	618.95
897.709	317.028
900.602	277.429
903.495	450.332
906.388	714.48
909.28	1246.3
912.173	1833.84
915.066	2573.21
917.958	3085.45
920.851	3030.39
923.744	2545.41
926.636	2042.88
929.529	1647.36
932.422	1123.18
935.314	647.986
938.207	376.571
941.1	140.272
943.993	63.8623
946.885	95.5254
949.778	100.346
952.671	105.349
955.563	83.5273
958.456	68.0029
961.349	27.2812
964.241	192.028
967.134	452.998
970.027	727.975
972.92	862.812
975.812	445.913
978.705	187.983
981.598	37.6699
984.49	6.12891
987.383	63.8291
990.276	114.41
993.168	78.7129
996.061	42.2178
998.954	47.9961
1001.85	165.838
1004.74	233.898
1007.63	195.088
1010.52	121.079
1013.42	253.352
1016.31	240.969
1019.2	282.206
1022.1	390.272
1024.99	445.897
1027.88	364.995
1030.77	442.816
1033.67	458.721
1036.56	673.209
1039.45	649.025
1042.34	520.737
1045.24	395.602
1048.13	289.618
1051.02	327.048
1053.91	286.598
1056.81	351.806
1059.7	334.658
1062.59	374.793
1065.49	389.135
1068.38	292.953
1071.27	320.417
1074.16	290.502
1077.06	429.743
1079.95	479.673
1082.84	578.166
1085.73	488.775
1088.63	494.224
1091.52	414.772
1094.41	383.656
1097.31	248.274
1100.2	169.078
1103.09	166.32
1105.98	48.0293
1108.88	59.5723
1111.77	20.9922
1114.66	56.4853
1117.56	59.901
1120.45	59.4598
1123.34	92.5687
1126.23	94.327
1129.12	128.688
1132.02	263.984
1134.91	332.118
1137.8	439.44
1140.7	280.036
1143.59	230.117
1146.48	156.152
1149.37	198.09
1152.27	177.218
1155.16	135.51
1158.05	109.008
1160.94	66.4414
1163.84	105.481
1166.73	45.7793
1169.62	0
