Measurement: Raman, 532 nm, unoriented, Raman Data Processed
Mineral: Vuonnemite
Rruff sample: R080015
Ideal chemistry: Na_11_Ti^4+^Nb^5+^_2_(Si_2_O_7_)_2_(PO_4_)_2_O_3_F
Locality: Kedykevrpahkh Mt., Lovozero Massif, Kola Peninsula, Russia
Source: Michael Scott
Description: Yellow scale of platy crystals associated with microcline, pale pink elogated serandite, natrolite, and light brown platy manaksite.
Raman shift (cm-1)	intensity
89.7832	0
93.158	27.6127
96.5328	9.60657
99.9077	7.3075
103.282	24.2294
106.657	51.8901
110.032	187.671
113.407	359.47
116.782	483.168
120.157	482.784
123.531	422.813
126.906	413.94
130.281	424.209
133.656	280.43
137.031	142.458
140.405	96.2017
143.78	71.3777
147.155	39.7454
150.53	20.7
153.905	24.1738
157.28	9.14355
160.654	14.1069
164.029	0.111084
167.404	3.06299
170.779	26.8704
174.154	65.9541
177.528	33.6472
180.903	8.59546
184.278	9.95996
187.653	30.4419
191.028	72.6472
194.403	154.649
197.777	216.927
201.152	146.811
204.527	98.8142
207.902	154.226
211.277	309.482
214.651	389.683
218.026	192.023
221.401	38.1956
224.776	1.14819
228.151	52.8752
231.525	81.5344
234.9	88.8333
238.275	123.814
241.65	153.719
245.025	206.268
248.4	306.479
251.774	422.875
255.149	532.262
258.524	667.42
261.899	748.83
265.274	657.835
268.649	475.675
272.023	290.721
275.398	152.53
278.773	57.613
282.148	12.1118
285.523	3.94434
288.897	31.1914
292.272	54.9919
295.647	50.6536
299.022	29.1558
302.397	2.01685
305.772	14.3435
309.146	31.7825
312.521	19.7427
315.896	14.8088
319.271	21.2288
322.646	61.9758
326.02	110.934
329.395	154.215
332.77	202.271
336.145	273.252
339.52	371.983
342.894	404.706
346.269	421.281
349.644	396.751
353.019	397.863
356.394	369.411
359.769	340.943
363.143	245.52
366.518	158.167
369.893	78.0957
373.268	31.6697
376.643	6.93262
380.017	11.1367
383.392	0.370605
386.767	35.0269
390.142	6.7749
393.517	5.9624
396.892	15.5835
400.266	24.1067
403.641	16.5225
407.016	13.5183
410.391	39.7412
413.766	74.7744
417.14	111.288
420.515	119.677
423.89	97.6631
427.265	70.2466
430.64	92.3191
434.014	98.251
437.389	150.345
440.764	201.62
444.139	278.056
447.514	300.418
450.889	286.316
454.263	238.383
457.638	183.617
461.013	110.225
464.388	77.7688
467.763	59.969
471.137	65.1611
474.512	64.0063
477.887	75.5227
481.262	66.3511
484.637	79.3049
488.012	73.8296
491.386	85.5203
494.761	60.6045
498.136	36.3616
501.511	11.3054
504.886	6.3125
508.26	4.06689
511.635	0.013672
515.01	20.3972
518.385	31.2192
521.76	34.6309
525.135	42.1384
528.509	38.2722
531.884	29.6453
535.259	12.9421
538.634	11.364
542.009	3.86035
545.384	7.70532
548.758	9.83789
552.133	16.9553
555.508	34.6528
558.883	87.3257
562.258	190.687
565.632	376.522
569.007	590.777
572.382	939.583
575.757	1351.16
579.132	1598.43
582.506	1099.44
585.881	611.458
589.256	397.209
592.631	296.96
596.006	225.821
599.381	164.794
602.755	123.035
606.13	95.1812
609.505	88.7319
612.88	96.5869
616.255	78.3569
619.63	48.624
623.004	29.602
626.379	8.53809
629.754	14.6435
633.129	9.33154
636.504	3.47461
639.878	1.51709
643.253	1.4209
646.628	10.6841
650.003	17.2427
653.378	13.8525
656.752	10.2524
660.127	0.030762
663.502	3.0083
666.877	8.00293
670.252	29.5064
673.626	20.8423
677.001	22.5566
680.376	56.375
683.751	64.6773
687.126	128.734
690.501	183.237
693.875	302.117
697.25	469.418
700.625	691.882
704	967.523
707.375	1159.5
710.75	1040.3
714.124	618.813
717.499	309.411
720.874	161.304
724.249	79.2725
727.624	76.2246
730.998	65.5444
734.373	57.146
737.748	71.3364
741.123	84.374
744.498	85.6943
747.872	90.3237
751.247	112.689
754.622	108.152
757.997	101.943
761.372	93.2993
764.747	112.538
768.121	106.51
771.496	118.056
774.871	84.3354
778.246	25.1826
781.621	9.20459
784.995	3.56103
788.37	16.8911
791.745	31.9936
795.12	29.5835
798.495	35.1103
801.87	27.4282
805.244	65.2095
808.619	141.98
811.994	225.72
815.369	353.68
818.744	580.714
822.119	802.777
825.493	970.41
828.868	1039.27
832.243	956.037
835.618	800.802
838.993	648.404
842.367	506.951
845.742	389.332
849.117	290.168
852.492	202.669
855.867	202.791
859.241	309.357
862.616	509.939
865.991	811.122
869.366	1308.63
872.741	2277.58
876.115	3904.33
879.49	6103.48
882.865	8721.88
886.24	9983.36
889.615	7430.18
892.99	3989.2
896.364	2362.37
899.739	1400.91
903.114	637.303
906.489	193.59
909.864	21.0591
913.239	3.20068
916.613	169.207
919.988	388.881
923.363	702.394
926.738	1200.38
930.113	1685.71
933.487	1481.08
936.862	905.532
940.237	429.87
943.612	119.619
946.987	4.35107
950.361	3.62207
953.736	42.9575
957.111	41.5835
960.486	13.3555
963.861	13.4839
967.236	79.3477
970.61	167.508
973.985	225.389
977.36	119.423
980.735	18.0049
984.11	15.3989
987.485	23.5967
990.859	29.5581
994.234	9.69727
997.609	20.1685
1000.98	6.96045
1004.36	22.5244
1007.73	41.1504
1011.11	66.7598
1014.48	100.77
1017.86	165.899
1021.23	207.53
1024.61	268.396
1027.98	379.356
1031.36	490.847
1034.73	718.155
1038.11	1008.4
1041.48	1070.06
1044.86	533.784
1048.23	302.11
1051.61	245.772
1054.98	234.507
1058.36	212.462
1061.73	204.445
1065.11	145.303
1068.48	137.473
1071.86	185.987
1075.23	262.656
1078.6	387.83
1081.98	557.774
1085.35	711.327
1088.73	704.343
1092.1	527.671
1095.48	304.83
1098.85	189.6
1102.23	99.8769
1105.6	45.7822
1108.98	8.56543
1112.35	55.502
1115.73	22.2109
1119.1	5.53125
1122.48	40.3447
1125.85	4.16797
1129.23	1.13184
1132.6	17.6367
1135.98	5.54981
1139.35	16.041
1142.73	29.2695
1146.1	12.5029
1149.48	27.3057
1152.85	36.4434
1156.22	47.7432
1159.6	58.0147
1162.97	38.2949
1166.35	19.6133
1169.72	29.4961
1173.1	31.8428
1176.47	32.5703
1179.85	40.6387
1183.22	43.0254
1186.6	64.791
1189.97	37.4678
1193.35	27.2334
1196.72	48.2529
1200.1	25.4434
1203.47	5.125
1206.85	45.875
1210.22	32.0684
1213.6	26.0322
1216.97	23.4648
1220.35	40.0166
1223.72	26.5303
1227.1	12.0342
1230.47	25.168
1233.85	32.9443
1237.22	16.9131
1240.6	11.1455
1243.97	28.9199
1247.35	43.794
1250.72	31.0293
1254.1	37.8662
1257.47	49.959
1260.85	25.2939
1264.22	28.6162
1267.59	7.87305
1270.97	20.1934
1274.34	11.3955
1277.72	37.8662
1281.09	24.3516
1284.47	43.1123
1287.84	43.5166
1291.22	9.56543
1294.59	30.0596
1297.97	0.898438
1301.34	0.669922
