Measurement: Raman, 780 nm, unoriented, Raman Data Processed
Mineral: Vuonnemite
Rruff sample: R080015
Ideal chemistry: Na_11_Ti^4+^Nb^5+^_2_(Si_2_O_7_)_2_(PO_4_)_2_O_3_F
Locality: Kedykevrpahkh Mt., Lovozero Massif, Kola Peninsula, Russia
Source: Michael Scott
Description: Yellow scale of platy crystals associated with microcline, pale pink elogated serandite, natrolite, and light brown platy manaksite.
Raman shift (cm-1)	intensity
90.5957	0
93.9705	26.4479
97.3453	31.6486
100.72	40.6063
104.095	31.9622
107.47	43.5567
110.845	58.3021
114.219	74.5665
117.594	72.8175
120.969	61.5455
124.344	52.3083
127.719	56.9042
131.094	44.4173
134.468	17.997
137.843	5.17459
141.218	0.583527
144.593	4.80435
147.968	4.84811
151.342	4.02701
154.717	0.660034
158.092	0.230316
161.467	0.895233
164.842	0.867706
168.216	10.9493
171.591	18.981
174.966	20.2988
178.341	13.5929
181.716	4.7149
185.09	0.246216
188.465	1.27301
191.84	7.39239
195.215	12.6645
198.59	20.9714
201.965	19.8195
205.339	19.2126
208.714	33.8807
212.089	59.8194
215.464	50.9698
218.839	21.684
222.214	13.0258
225.588	16.1367
228.963	20.4474
232.338	19.9667
235.713	7.13632
239.088	7.58343
242.462	17.2287
245.837	37.0137
249.212	70.6863
252.587	100.174
255.962	125.257
259.336	144.28
262.711	154.497
266.086	138.478
269.461	107.118
272.836	70.5238
276.211	38.5544
279.585	16.8111
282.96	2.00149
286.335	5.47339
289.71	2.17059
293.085	5.10956
296.459	14.0837
299.834	22.4541
303.209	27.5838
306.584	38.9664
309.959	36.3608
313.334	34.2451
316.708	32.5556
320.083	20.4622
323.458	16.4449
326.833	20.8933
330.207	25.4918
333.582	44.4034
336.957	71.643
340.332	100.966
343.707	116.739
347.082	117.02
350.456	111.402
353.831	107.236
357.206	84.2498
360.581	56.2658
363.956	23.7291
367.33	1.2102
370.705	8.96533
374.08	12.0061
377.455	2.73468
380.83	19.6774
384.205	39.0704
387.579	63.032
390.954	84.1302
394.329	106.45
397.704	120.101
401.079	145.245
404.453	190.72
407.828	246.848
411.203	313.85
414.578	392.486
417.953	449.68
421.327	478.453
424.702	450.04
428.077	383.172
431.452	310.094
434.827	246.967
438.202	194.744
441.576	164.636
444.951	153.283
448.326	147.939
451.701	148.645
455.076	151.524
458.45	143.454
461.825	140.443
465.2	131.232
468.575	112.455
471.95	99.8957
475.325	82.6375
478.699	64.908
482.074	55.0025
485.449	49.9368
488.824	45.1263
492.199	36.8455
495.573	30.4922
498.948	19.676
502.323	18.1908
505.698	12.0709
509.073	10.9869
512.447	7.01138
515.822	7.7038
519.197	5.81638
522.572	2.98975
525.947	4.9418
529.322	0.613495
532.696	4.25571
536.071	2.87885
539.446	7.51083
542.821	4.59842
546.196	2.1315
549.57	4.08221
552.945	9.37463
556.32	20.3207
559.695	32.6655
563.07	52.2624
566.444	76.5313
569.819	104.724
573.194	149.938
576.569	201.144
579.944	208.421
583.319	166.75
586.693	142.927
590.068	137.464
593.443	129.516
596.818	117.654
600.193	105.778
603.567	99.1806
606.942	92.6608
610.317	91.7056
613.692	90.4058
617.067	79.6731
620.442	64.1938
623.816	55.9067
627.191	47.8877
630.566	36.432
633.941	30.2156
637.316	18.6813
640.69	14.7876
644.065	7.03189
647.44	1.56076
650.815	1.5083
654.19	0.231689
657.564	0.359634
660.939	1.18912
664.314	3.12758
667.689	9.0032
671.064	8.47101
674.439	17.2096
677.813	19.8024
681.188	28.5344
684.563	37.9402
687.938	46.8612
691.313	58.0137
694.688	69.3025
698.062	78.8189
701.437	94.7641
704.812	114.65
708.187	118.153
711.562	93.9365
714.936	61.0462
718.311	37.7581
721.686	22.807
725.061	12.0616
728.436	7.8882
731.81	4.17081
735.185	2.12399
738.56	0.046967
741.935	1.78404
745.31	1.54701
748.684	1.7491
752.059	0.553238
755.434	1.60744
758.809	3.31915
762.184	7.53499
765.559	8.0183
768.933	10.5384
772.308	7.36394
775.683	8.83949
779.058	12.6398
782.433	7.49149
785.808	12.1196
789.182	4.4493
792.557	2.84114
795.932	0.175247
799.307	1.33102
802.682	3.56596
806.056	2.05792
809.431	1.45483
812.806	5.81361
816.181	14.6339
819.556	32.9623
822.93	53.8187
826.305	67.3605
829.68	78.0768
833.055	75.1975
836.43	72.5329
839.804	66.8818
843.179	53.0805
846.554	47.8952
849.929	35.1176
853.304	26.0995
856.679	24.1431
860.053	25.0886
863.428	43.0393
866.803	51.7161
870.178	81.91
873.553	143.283
876.927	238.749
880.302	378.04
883.677	556.073
887.052	572.989
890.427	358.202
893.802	212.492
897.176	141.664
900.551	93.7971
903.926	57.8569
907.301	39.401
910.676	34.1972
914.05	37.8885
917.425	49.4819
920.8	63.8229
924.175	78.0022
927.55	105.11
930.924	115.126
934.299	83.3045
937.674	50.5468
941.049	18.0549
944.424	0.412674
947.799	5.36571
951.173	1.43675
954.548	3.59064
957.923	0.405823
961.298	3.21075
964.673	4.45641
968.047	15.6199
971.422	31.6133
974.797	37.6764
978.172	20.1269
981.547	12.4635
984.922	11.6793
988.296	11.3296
991.671	13.3785
995.046	15.9002
998.421	14.5366
1001.8	13.2453
1005.17	8.57112
1008.54	4.60516
1011.92	3.87851
1015.29	0.983215
1018.67	1.52896
1022.04	2.01887
1025.42	2.76018
1028.79	5.38074
1032.17	5.65047
1035.54	16.9399
1038.92	42.3629
1042.29	25.1759
1045.67	0.63916
1049.04	3.55808
1052.42	2.65724
1055.79	1.56639
1059.17	2.98869
1062.54	2.60864
1065.92	1.3523
1069.29	0.748764
1072.67	1.20108
1076.04	4.18837
1079.42	16.3533
1082.79	26.3089
1086.17	37.534
1089.54	34.6283
1092.92	23.5082
1096.29	18.9644
1099.66	16.9992
1103.04	15.2951
1106.41	19.0526
1109.79	22.0054
1113.16	25.5491
1116.54	27.237
1119.91	30.8515
1123.29	33.3429
1126.66	39.8416
1130.04	46.6963
1133.41	49.8606
1136.79	54.226
1140.16	55.859
1143.54	65.4171
1146.91	66.472
1150.29	67.4668
1153.66	79.135
1157.04	77.8544
1160.41	85.8953
1163.79	87.097
1167.16	94.7981
1170.54	98.7369
1173.91	104.717
1177.29	113.607
1180.66	117.381
1184.04	121.128
1187.41	118.876
1190.79	130.517
1194.16	121.589
1197.54	123.182
1200.91	123.807
1204.28	121.027
1207.66	115.842
1211.03	104.314
1214.41	90.6357
1217.78	68.1418
1221.16	39.3375
1224.53	16.5134
1227.91	11.9978
1231.28	5.56543
1234.66	2.24908
1238.03	5.45172
1241.41	7.57544
1244.78	9.77435
1248.16	29.1699
1251.53	28.6892
1254.91	39.2811
1258.28	41.4612
1261.66	22.5106
1265.03	25.2695
1268.41	20.4941
1271.78	19.9316
1275.16	18.225
1278.53	15.053
1281.9	10.8403
