Measurement: Raman, 532 nm, unoriented, Raman Data Processed
Mineral: Vuoriyarvite-K
Rruff sample: R070703
Ideal chemistry: (K,Na,[box])_12_Nb_8_(Si_4_O_12_)_4_O_8_12-16H_2_O
Locality: Vein No. 46,  Kirovskii apatite mine (Kirovsky Mine; Kirov Mine),  Kukisvumchorr Mt,  Khibiny Massif,  Kola Peninsula,  Murmanskaja Oblast',  Northern Region,  Russia
Source: Michael Scott
Description: Light tan, compact mass of micro-crystals associated with calcite and greenish sodalite
Raman shift (cm-1)	intensity
137.399	0
140.774	433.893
144.149	119.906
147.524	44.8574
150.899	2.47852
154.274	32.7812
157.648	60.3008
161.023	192.307
164.398	433.332
167.773	798.025
171.148	1250.28
174.522	1564.32
177.897	2018.33
181.272	2548.64
184.647	3309.65
188.022	4021.23
191.396	4598.4
194.771	5364.62
198.146	6064.78
201.521	6686.43
204.896	7379.96
208.27	8163.42
211.645	8889.87
215.02	9276.84
218.395	9966.9
221.77	10229.3
225.145	10414.1
228.519	10198.8
231.894	9516.26
235.269	8736.97
238.644	7756.14
242.019	6656.59
245.393	5883.58
248.768	4960.62
252.143	4201.71
255.518	3855.76
258.893	3466.08
262.268	3258.11
265.642	2891.86
269.017	2638.99
272.392	2428.98
275.767	2454.03
279.142	2588.58
282.517	3018.89
285.891	3323.31
289.266	3743.34
292.641	4107.22
296.016	4119.05
299.39	4219.66
302.765	4181.09
306.14	3844.19
309.515	3477.64
312.89	2992
316.265	2250.12
319.639	1602.49
323.014	1062.18
326.389	445.768
329.764	76.2773
333.139	359.926
336.514	333.971
339.888	385.779
343.263	115.475
346.638	208.453
350.013	294.438
353.388	663.619
356.762	763.746
360.137	1162.81
363.512	1549.85
366.887	1403.43
370.262	1404.06
373.637	1340.55
377.011	1479.21
380.386	1380.13
383.761	1155.16
387.136	989.477
390.511	562.484
393.885	294.555
397.26	195.65
400.635	85.7754
404.01	76.2481
407.385	151.916
410.76	57.707
414.134	38.9473
417.509	276.457
420.884	434.547
424.259	674.627
427.634	853.752
431.008	1044.7
434.383	1035.67
437.758	1188.26
441.133	1243.63
444.508	1387.32
447.882	1229.11
451.257	1246.57
454.632	1470.16
458.007	1814.88
461.382	2400.36
464.757	2847.89
468.131	3482.18
471.506	4324.87
474.881	4858.57
478.256	5193.76
481.631	4900.57
485.005	4394.84
488.38	3582.46
491.755	3054.08
495.13	2495.02
498.505	2150.98
501.88	1730.39
505.254	1789
508.629	1913.31
512.004	2397.92
515.379	3164.67
518.754	3865.33
522.128	4405.21
525.503	4128.7
528.878	3554.94
532.253	2787.73
535.628	2185.27
539.002	1783.21
542.377	1628.16
545.752	1517.1
549.127	1250.34
552.502	1005.98
555.876	804.562
559.251	683.938
562.626	676.783
566.001	464.539
569.376	391.912
572.751	343.197
576.125	98.4356
579.5	39.7812
582.875	7.6582
586.25	35.7168
589.625	161.19
593	210.336
596.374	261.246
599.749	254.289
603.124	108.951
606.499	66.9551
609.874	2.64258
613.248	246.025
616.623	569.824
619.998	782.221
623.373	1051.03
626.748	1271.96
630.122	1898.79
633.497	2434.57
636.872	3094.2
640.247	3844.94
643.622	4731.03
646.997	5328.4
650.371	6099.76
653.746	6647.02
657.121	7117.05
660.496	7342.08
663.871	7602.78
667.245	7757.22
670.62	7437.2
673.995	7052.01
677.37	6594.59
680.745	6018.64
684.12	5601.05
687.494	5210.58
690.869	4995.91
694.244	4782.82
697.619	4916.97
700.994	4831.63
704.368	4549.62
707.743	4499.4
711.118	4227.14
714.493	4162.77
717.868	3997.97
721.242	3749.66
724.617	3499.17
727.992	3379.44
731.367	3091.87
734.742	2960.55
738.117	2864.59
741.491	2672.22
744.866	2499.81
748.241	2341.83
751.616	2039.97
754.991	1902.45
758.365	1682.54
761.74	1305.13
765.115	1133.71
768.49	872.441
771.865	691.527
775.24	665.418
778.614	436.398
781.989	276.441
785.364	70.4883
788.739	69.5449
792.114	86.8984
795.489	187.127
798.863	260.832
802.238	206.65
805.613	171.978
808.988	31.041
812.362	202.047
815.737	343.381
819.112	407.031
822.487	416.184
825.862	451.797
829.237	614.531
832.611	714.992
835.986	796.531
839.361	787.377
842.736	934.143
846.111	742.418
849.486	665.197
852.86	647.852
856.235	521.066
859.61	225.822
862.985	27.207
866.36	112.322
869.734	114.822
873.109	375.705
876.484	692.453
879.859	846.639
883.234	829.016
886.609	692.41
889.983	588.104
893.358	532.961
896.733	520.689
900.108	547.627
903.482	565.135
906.857	762.016
910.232	844.404
913.607	829.17
916.982	1015.44
920.357	1049.17
923.731	1185.56
927.106	1443.3
930.481	1555.89
933.856	1626.24
937.231	1742.79
940.606	1763.25
943.98	1727.6
947.355	1582.43
950.73	1500.18
954.105	1233.93
957.48	1046.41
960.854	780.699
964.229	517.381
967.604	313.029
970.979	71.207
974.354	39.3574
977.729	3.74414
981.103	80.6699
984.478	93.7148
987.853	104.269
991.228	158.178
994.602	54.0938
997.977	167.674
1001.35	279.244
1004.73	334.131
1008.1	388.027
1011.48	279.873
1014.85	232.242
1018.23	275.168
1021.6	429.211
1024.98	580.412
1028.35	456.529
1031.73	665.99
1035.1	818.006
1038.47	868.195
1041.85	958.9
1045.22	1013.22
1048.6	1069.1
1051.97	1020.25
1055.35	1055.91
1058.72	935.678
1062.1	788.107
1065.47	687.287
1068.85	491.166
1072.22	459.137
1075.6	387.879
1078.97	367.139
1082.35	412.703
1085.72	133.715
1089.1	6.3457
1092.47	146.121
1095.85	143.072
1099.22	103.617
1102.6	101.746
1105.97	31.3398
1109.35	24.7441
1112.72	26.5234
1116.1	55.1719
1119.47	155.277
1122.85	61.7832
1126.22	19.8145
1129.6	87.4062
1132.97	44.7578
1136.35	30.4414
1139.72	59.1777
1143.09	95.875
1146.47	66.5723
1149.84	69.3418
1153.22	64.4121
1156.59	52.1328
1159.97	142.94
1163.34	136.045
1166.72	108.34
1170.09	119.047
1173.47	84.5918
1176.84	195.924
1180.22	90.666
1183.59	144.629
1186.97	178.34
1190.34	126.322
1193.72	134.51
1197.09	222.848
1200.47	167.029
1203.84	202.867
1207.22	181.801
1210.59	217.986
1213.97	130.402
1217.34	84.4629
1220.71	79.9199
1224.09	101.894
1227.46	129.598
1230.84	54.7285
1234.21	137.852
1237.59	24.1621
1240.96	210.019
1244.34	158.885
1247.71	101.117
1251.09	4.61133
1254.46	49.002
1257.84	101.688
1261.21	44.252
1264.59	130.143
1267.96	21.0859
1271.34	23.793
1274.71	90.9356
1278.09	188.262
1281.46	50.9121
1284.84	145.115
1288.21	180.209
1291.59	71.6543
1294.96	84.3926
1298.34	137.207
1301.71	115.549
