Measurement: Raman, 780 nm, unoriented, Raman Data Processed
Mineral: Vuoriyarvite-K
Rruff sample: R070703
Ideal chemistry: (K,Na,[box])_12_Nb_8_(Si_4_O_12_)_4_O_8_12-16H_2_O
Locality: Vein No. 46,  Kirovskii apatite mine (Kirovsky Mine; Kirov Mine),  Kukisvumchorr Mt,  Khibiny Massif,  Kola Peninsula,  Murmanskaja Oblast',  Northern Region,  Russia
Source: Michael Scott
Description: Light tan, compact mass of micro-crystals associated with calcite and greenish sodalite
Raman shift (cm-1)	intensity
131.539	0
134.914	193.088
138.288	315.807
141.663	103.893
145.038	14.9668
148.413	24.2539
151.788	93.2129
155.163	2.95703
158.537	470.574
161.912	400.443
165.287	796.494
168.662	1035.26
172.037	1472.31
175.411	1827.28
178.786	2160.07
182.161	2915.65
185.536	3576.99
188.911	4502.34
192.286	5142.52
195.66	5819.66
199.035	6673.39
202.41	7375.93
205.785	8020.77
209.16	8792.09
212.535	9424.67
215.909	10444.7
219.284	10948.2
222.659	11192.1
226.034	11241.1
229.409	10815.8
232.783	10372.4
236.158	9680.14
239.533	8611.68
242.908	7542.16
246.283	6345.2
249.657	5339.08
253.032	4594.62
256.407	4284.27
259.782	3923.47
263.157	3672.14
266.532	3390.61
269.906	3126.48
273.281	2736.41
276.656	2645.3
280.031	2800.73
283.406	3210.22
286.781	3862.14
290.155	4244.69
293.53	4549.3
296.905	4820.37
300.28	4905.34
303.655	4839.41
307.029	4552.68
310.404	4036.36
313.779	3348.37
317.154	2793.17
320.529	2061.62
323.904	1233.73
327.278	481.823
330.653	108.109
334.028	377.104
337.403	595.938
340.778	446.213
344.152	118.407
347.527	186.524
350.902	390.338
354.277	600.088
357.652	918.759
361.027	1207.2
364.401	1485.11
367.776	1567.31
371.151	1614.34
374.526	1466.65
377.901	1582.44
381.276	1333.97
384.65	1126.75
388.025	1021.31
391.4	771.656
394.775	410.861
398.149	136.91
401.524	0.571777
404.899	92.0293
408.274	106.355
411.649	40.2363
415.024	127.102
418.399	321.736
421.773	489.588
425.148	669.065
428.523	784.155
431.898	966.216
435.273	995.791
438.647	976.312
442.022	1031.21
445.397	1048.41
448.772	1075.14
452.147	1070.78
455.522	1141.47
458.896	1492.13
462.271	1869.78
465.646	2409.21
469.021	3023.23
472.396	3762.05
475.77	4422.3
479.145	4862.41
482.52	4476.24
485.895	3856.83
489.27	3172.02
492.644	2612.69
496.019	2198.23
499.394	1884.59
502.769	1560.61
506.144	1351.42
509.519	1352.79
512.893	1724.37
516.268	2617.17
519.643	3528.83
523.018	3859.84
526.393	3625.78
529.768	2919.83
533.142	2350.57
536.517	1932
539.892	1525.5
543.267	1266.06
546.641	1104.31
550.016	998.225
553.391	866.089
556.766	702.616
560.141	622.782
563.516	563.98
566.89	467.237
570.265	344.565
573.64	269.428
577.015	169.926
580.39	126.034
583.764	24.7969
587.139	113.955
590.514	222.138
593.889	237.814
597.264	197.771
600.639	238.398
604.014	164.695
607.388	62.8677
610.763	19.7935
614.138	168.53
617.513	379.501
620.888	566.365
624.262	969.277
627.637	1257.8
631.012	1639.54
634.387	2135.04
637.762	2682.82
641.136	3344.01
644.511	4033.53
647.886	4768.49
651.261	5336.62
654.636	5836.15
658.011	6130.24
661.385	6506.34
664.76	6600.33
668.135	6683.06
671.51	6463.09
674.885	6030.81
678.26	5602.87
681.634	5165.31
685.009	4709.18
688.384	4254.71
691.759	3956.09
695.134	4009.21
698.508	3928.18
701.883	3855.3
705.258	3767.62
708.633	3690.76
712.008	3656.09
715.382	3483.97
718.757	3357.33
722.132	3235.27
725.507	3050.71
728.882	2911.2
732.257	2727.79
735.631	2571.91
739.006	2489.06
742.381	2343.5
745.756	2329.35
749.131	2122.38
752.505	1948.97
755.88	1723.66
759.255	1535.26
762.63	1357.89
766.005	1120.01
769.38	909.757
772.754	697.507
776.129	621.449
779.504	404.641
782.879	313.213
786.254	149.065
789.629	41.0185
793.003	148.709
796.378	275.46
799.753	258.589
803.128	204.43
806.503	108.385
809.877	40.8696
813.252	134.175
816.627	304.822
820.002	397.832
823.377	507.905
826.751	570.378
830.126	577.869
833.501	740.649
836.876	874.833
840.251	845.785
843.625	832.318
847	827.305
850.375	772.818
853.75	614.638
857.125	419.944
860.5	185.704
863.875	77.3057
867.249	38.187
870.624	71.2498
873.999	234.367
877.374	424.95
880.749	496.196
884.123	525.92
887.498	427.353
890.873	367.117
894.248	299.177
897.623	297.455
900.997	398.646
904.372	470.743
907.747	547.244
911.122	629.398
914.497	724.503
917.872	783.596
921.246	897.523
924.621	904.306
927.996	941.982
931.371	1046.13
934.746	1120.5
938.12	1146.55
941.495	1140.48
944.87	1169.05
948.245	1088.25
951.62	990.265
954.995	801.984
958.369	685.107
961.744	482.527
965.119	263.565
968.494	290.45
971.869	33.2225
975.244	4.09631
978.618	24.0787
981.993	49.7636
985.368	12.8053
988.743	12.7882
992.118	48.3785
995.492	125.034
998.867	163.873
1002.24	195.839
1005.62	196.773
1008.99	221.101
1012.37	192.776
1015.74	228.22
1019.12	201.82
1022.49	243.039
1025.87	281.843
1029.24	349.947
1032.62	407.697
1035.99	512.218
1039.37	574.783
1042.74	669.642
1046.12	737.897
1049.49	826.549
1052.86	824.801
1056.24	736.88
1059.61	675.663
1062.99	547.936
1066.36	449.79
1069.74	343.632
1073.11	295.968
1076.49	174.996
1079.86	176.078
1083.24	112.562
1086.61	101.514
1089.99	81.4222
1093.36	64.1559
1096.74	6.91565
1100.11	12.0587
1103.49	2.12353
1106.86	1.21606
1110.24	22.9457
1113.61	15.5797
1116.99	15.5035
1120.36	15.1936
1123.73	0.228882
1127.11	3.97107
1130.48	3.00977
1133.86	6.24109
1137.23	12.1139
1140.61	7.547
1143.98	19.1205
1147.36	0.573486
1150.73	30.0275
1154.11	25.052
1157.48	42.6921
1160.86	52.6914
1164.23	32.0656
1167.61	77.8961
1170.98	30.283
1174.36	86.4957
1177.73	59.6876
1181.11	52.0855
1184.48	63.0139
1187.86	53.1028
1191.23	76.8069
1194.61	12.1814
1197.98	45.2383
1201.36	47.5466
1204.73	34.6185
1208.11	21.8951
1211.48	45.1855
1214.86	17.9827
1218.23	38.6372
1221.61	4.86963
1224.98	9.28442
1228.36	5.06738
1231.73	18.4645
1235.1	17.7166
1238.48	40.9685
1241.85	52.4547
1245.23	97.1084
1248.6	105.84
1251.98	168.23
1255.35	198.828
1258.73	235.851
1262.1	270.768
1265.48	261.918
1268.85	258.566
1272.23	244.537
1275.6	188.492
1278.98	133.445
1282.35	63.1697
1285.73	5.73975
1289.1	2.24512
