Measurement: Raman, 780 nm, unoriented, Raman Data Processed
Mineral: Wadeite
Rruff sample: R130537
Ideal chemistry: K_2_ZrSi_3_O_9_
Locality: Potash Corporation of Saskatchewan mine, Penobsquis, Kings County, New Brunswick, Canada
Source: Donald M Doell and Brian Roulston
Description: Colorless grains, associated with anhydrite and boracite, embedded in halite. Halite is dissolved in water.
Raman shift (cm-1)	intensity
97.9492	0
101.324	1.41277
104.699	14.9513
108.074	15.426
111.448	19.9137
114.823	32.4464
118.198	48.9113
121.573	74.9755
124.948	89.4353
128.322	44.1732
131.697	9.86795
135.072	0.255005
138.447	1.96829
141.822	0.672981
145.197	3.96807
148.571	12.779
151.946	26.871
155.321	28.0641
158.696	10.5178
162.071	9.74583
165.446	17.5166
168.82	32.3437
172.195	52.3349
175.57	74.5634
178.945	103
182.32	139.716
185.694	182.609
189.069	219.786
192.444	206.986
195.819	160.539
199.194	113.583
202.569	78.4304
205.943	53.0727
209.318	36.7351
212.693	27.0501
216.068	19.0209
219.442	14.5458
222.817	11.0141
226.192	7.71483
229.567	5.4147
232.942	4.47454
236.317	3.29554
239.691	3.12073
243.066	2.74382
246.441	2.25497
249.816	1.09405
253.191	0.436218
256.565	0.000118
259.94	0.562893
263.315	0.403923
266.69	0.663406
270.065	0.167767
273.44	0.497799
276.814	0.531754
280.189	0.699368
283.564	0.181168
286.939	0.508644
290.314	0.046524
293.688	0.346004
297.063	0.192867
300.438	0.219677
303.813	0.256496
307.188	0.068909
310.562	0.451035
313.937	1.02955
317.312	0.998005
320.687	1.52305
324.062	2.97754
327.437	6.47377
330.811	8.62841
334.186	11.9987
337.561	17.9544
340.936	32.9408
344.311	46.3745
347.685	23.2655
351.06	22.6721
354.435	33.8746
357.81	44.5069
361.185	59.9961
364.56	86.8168
367.934	122.035
371.309	126.161
374.684	76.5268
378.059	43.4096
381.434	29.8532
384.808	19.1652
388.183	9.9071
391.558	5.43099
394.933	3.18141
398.308	1.71996
401.683	0.549644
405.057	0.325287
408.432	0.274906
411.807	0.218426
415.182	1.15795
418.557	2.48147
421.931	2.81043
425.306	5.27998
428.681	8.91527
432.056	14.7012
435.431	10.0988
438.805	3.06968
442.18	0.882931
445.555	0.124512
448.93	0.884308
452.305	0.541294
455.68	0.471455
459.054	0.046848
462.429	0.540833
465.804	1.45375
469.179	3.74826
472.554	9.89589
475.928	23.6732
479.303	36.8994
482.678	52.9257
486.053	84.4064
489.428	134.13
492.803	137.422
496.177	66.9862
499.552	36.8202
502.927	28.7481
506.302	28.7351
509.677	31.7764
513.051	39.6138
516.426	42.4603
519.801	34.3745
523.176	19.5834
526.551	11.7833
529.926	6.07419
533.3	3.57515
536.675	2.38128
540.05	3.15908
543.425	6.23404
546.799	11.3195
550.174	18.1093
553.549	27.8382
556.924	44.0953
560.299	65.1453
563.674	68.8121
567.048	36.5833
570.423	14.4216
573.798	6.70084
577.173	3.19666
580.548	2.29657
583.923	1.13646
587.297	0.225796
590.672	0.335384
594.047	0.012733
597.422	0.051201
600.797	0.305962
604.171	0.288239
607.546	1.1044
610.921	3.24984
614.296	7.35363
617.671	12.7262
621.045	19.6219
624.42	28.1936
627.795	43.2435
631.17	44.3389
634.545	23.287
637.919	9.4163
641.294	4.2253
644.669	2.19046
648.044	1.18685
651.419	0.474955
654.794	0.209267
658.168	0.005713
661.543	0.35741
664.918	0.024471
668.293	0.047136
671.668	0.039827
675.043	0.116816
678.417	0.213181
681.792	0.091562
685.167	0.346779
688.542	0.726065
691.917	1.12418
695.291	1.74469
698.666	0.73732
702.041	1.05791
705.416	1.36111
708.791	1.37027
712.165	1.3438
715.54	1.9163
718.915	2.37436
722.29	2.89038
725.665	3.57123
729.039	4.58206
732.414	5.8762
735.789	5.49454
739.164	3.26954
742.539	2.31417
745.914	1.51068
749.288	1.0086
752.663	1.06688
756.038	0.872183
759.413	0.399851
762.788	0.413422
766.163	0.7234
769.537	0.018286
772.912	0.016764
776.287	0.652031
779.662	0.354786
783.037	0.141026
786.411	0.912579
789.786	2.855
793.161	0.177784
796.536	0.620033
799.911	0.910368
803.285	1.55181
806.66	1.86997
810.035	2.2869
813.41	2.06892
816.785	1.48996
820.159	1.48205
823.534	0.917015
826.909	1.23133
830.284	1.33939
833.659	1.37852
837.034	0.939146
840.408	1.21146
843.783	1.2497
847.158	1.09427
850.533	1.87186
853.908	2.12282
857.283	2.81024
860.657	1.79967
864.032	0.978626
867.407	0.562809
870.782	0.367588
874.157	0.27219
877.531	0.063662
880.906	0.369972
884.281	0.141502
887.656	0.545166
891.031	0.127932
894.405	0.167862
897.78	0.355482
901.155	1.39804
904.53	3.10853
907.905	5.04126
911.279	7.8007
914.654	10.1262
918.029	10.351
921.404	10.9654
924.779	14.1257
928.154	20.3923
931.528	25.1097
934.903	17.8814
938.278	7.87562
941.653	4.32382
945.028	2.74387
948.403	2.94734
951.777	4.25524
955.152	6.97177
958.527	12.8478
961.902	22.4471
965.277	36.4633
968.651	51.2698
972.026	65.2733
975.401	72.7794
978.776	91.1247
982.151	123.317
985.525	157.586
988.9	180.317
992.275	166.904
995.65	121.637
999.025	75.3277
1002.4	44.9591
1005.77	28.1902
1009.15	17.4098
1012.52	11.8507
1015.9	7.7207
1019.27	4.00377
1022.65	1.17796
1026.02	0.344065
1029.4	0.837469
1032.77	0.307655
1036.15	0.584393
1039.52	1.93147
1042.9	4.96849
1046.27	9.33518
1049.65	13.8357
1053.02	19.8751
1056.4	25.209
1059.77	25.1593
1063.15	17.9021
1066.52	10.6206
1069.9	5.73789
1073.27	3.62086
1076.64	2.33536
1080.02	0.940025
1083.39	0.299158
1086.77	0.254019
1090.14	0.173782
1093.52	0.595968
1096.89	0.064301
1100.27	0.256838
1103.64	0.399508
1107.02	0.52832
1110.39	0.840494
1113.77	1.64932
1117.14	1.47201
1120.52	1.05373
1123.89	1.01832
1127.27	1.16703
1130.64	0.819035
1134.02	1.09049
1137.39	0.444029
1140.77	1.02849
1144.14	1.16656
1147.52	0.824322
1150.89	0.452576
1154.27	0.939795
1157.64	0.450001
1161.02	0.119976
1164.39	0.150211
1167.77	0.509195
1171.14	0.410873
1174.52	0.219059
1177.89	0.207991
1181.27	0.448463
1184.64	0.005278
1188.01	0.243647
1191.39	0.051291
1194.76	0.365477
1198.14	0.430742
1201.51	0.570469
1204.89	0.293997
1208.26	0.041077
1211.64	0.25382
1215.01	0.368196
1218.39	0.427248
1221.76	0.33831
1225.14	0.330221
1228.51	0.418631
1231.89	0.34013
1235.26	0.40666
1238.64	0.273581
1242.01	0.368586
1245.39	0.164989
1248.76	0.077482
1252.14	0.545942
1255.51	0.333658
1258.88	0.064407
1262.26	0.090401
1265.63	0.387648
1269.01	0.344297
1272.38	0.3773
1275.76	0.289989
1279.13	0.305264
1282.51	0.003061
