Measurement: Raman, 532 nm, unoriented, Raman Data Processed
Mineral: Wadeite
Rruff sample: R060036
Ideal chemistry: K_2_ZrSi_3_O_9_
Locality: Walgidee, Western Australia, Austrailia
Source: University of Arizona Mineral Museum
Description: Tan colored water worn prismatic crystals, associated with fluorapatite
Measured chemistry: K_2.00_Zr_1.00_(Si_2.95_Ti_0.05_)_Î£=3_O_9_
Raman shift (cm-1)	intensity
182.892	0
185.785	15.2272
188.678	48.6019
191.57	81.2609
194.463	98.3225
197.356	91.4595
200.249	78.863
203.141	62.7513
206.034	46.8863
208.927	32.7813
211.819	22.8942
214.712	13.395
217.605	9.40495
220.497	6.98645
223.39	7.00401
226.283	5.27625
229.175	4.48645
232.068	1.2968
234.961	0.630905
237.854	0.56443
240.746	0.32386
243.639	1.16897
246.532	1.2758
249.424	1.79302
252.317	2.16223
255.21	1.01058
258.103	0.435982
260.995	0.787109
263.888	0.561417
266.781	1.33498
269.673	0.637268
272.566	3.34797
275.459	4.33923
278.351	5.47984
281.244	7.91311
284.137	5.27256
287.029	3.90559
289.922	3.40285
292.815	2.74827
295.708	2.72099
298.6	3.15866
301.493	4.04568
304.386	3.53761
307.278	2.90084
310.171	3.0845
313.064	1.28336
315.957	1.3227
318.849	2.03371
321.742	1.28175
324.635	4.13387
327.527	9.05357
330.42	15.0572
333.313	19.0293
336.205	29.9614
339.098	55.3484
341.991	94.9405
344.884	97.3396
347.776	32.7061
350.669	19.7142
353.562	19.502
356.454	22.9357
359.347	30.2081
362.24	44.4462
365.132	63.6042
368.025	91.3903
370.918	110.169
373.81	90.5206
376.703	69.5424
379.596	69.2099
382.489	59.2641
385.381	36.7912
388.274	18.1237
391.167	10.4108
394.059	5.28435
396.952	3.36513
399.845	1.30052
402.738	1.05493
405.63	0.356178
408.523	0.401039
411.416	1.61945
414.308	1.95869
417.201	4.41724
420.094	7.73079
422.986	14.0348
425.879	18.825
428.772	33.5737
431.664	50.5832
434.557	48.4089
437.45	23.3806
440.343	8.89049
443.235	3.36417
446.128	0.051193
449.021	0.614517
451.913	1.33528
454.806	1.05567
457.699	1.32437
460.591	1.45546
463.484	0.474884
466.377	0.372711
469.27	4.65854
472.162	11.3008
475.055	25.274
477.948	47.0148
480.84	70.77
483.733	107.664
486.626	176.041
489.519	269.344
492.411	317.025
495.304	189.754
498.197	88.9387
501.089	50.8824
503.982	36.6155
506.875	30.3323
509.767	28.4312
512.66	32.7402
515.553	35.4203
518.446	31.0004
521.338	23.1839
524.231	14.6427
527.124	9.37509
530.016	7.7943
532.909	10.5577
535.802	10.7875
538.694	13.6341
541.587	19.4697
544.48	32.2267
547.372	54.7071
550.265	85.0048
553.158	123.657
556.051	182.685
558.943	272.447
561.836	355.466
564.729	327.764
567.621	187.781
570.514	95.3272
573.407	53.5755
576.299	33.8459
579.192	24.6174
582.085	17.9952
584.978	14.5125
587.87	11.692
590.763	6.22405
593.656	2.38557
596.548	0.027405
599.441	0.396332
602.334	1.99643
605.226	1.03853
608.119	1.2431
611.012	3.11259
613.905	9.27724
616.797	17.9941
619.69	30.5599
622.583	47.0915
625.475	70.7322
628.368	98.4276
631.261	104.468
634.154	67.426
637.046	33.9631
639.939	17.6266
642.832	8.27356
645.724	8.0472
648.617	4.42595
651.51	2.16183
654.402	5.28732
657.295	2.76309
660.188	0.214096
663.081	0.049774
665.973	0.421036
668.866	0.566605
671.759	0.253784
674.651	0.196716
677.544	0.42215
680.437	0.589508
683.329	0.882202
686.222	1.14209
689.115	1.97305
692.008	2.07292
694.9	2.17688
697.793	1.45966
700.686	3.73233
703.578	2.44913
706.471	4.18567
709.364	2.91446
712.256	4.37477
715.149	4.93912
718.042	5.94992
720.934	8.14928
723.827	10.2384
726.72	15.4329
729.613	20.9907
732.505	20.3869
735.398	23.6923
738.291	14.7719
741.183	8.87207
744.076	5.28136
746.969	4.42471
749.861	2.76126
752.754	1.65372
755.647	0.570221
758.54	1.23639
761.432	0.089355
764.325	1.11099
767.218	0.505005
770.11	0.258606
773.003	0.233994
775.896	0.430969
778.788	0.863907
781.681	0.098267
784.574	0.020081
787.467	0.364258
790.359	1.55984
793.252	2.50829
796.145	2.56903
799.037	3.105
801.93	3.4454
804.823	5.85533
807.716	6.40686
810.608	5.01878
813.501	4.39227
816.394	5.68216
819.286	7.9464
822.179	8.81531
825.072	7.73624
827.964	6.606
830.857	5.86443
833.75	4.73329
836.643	5.79326
839.535	5.79105
842.428	5.24348
845.321	2.94412
848.213	2.23189
851.106	2.07613
853.999	1.15186
856.891	2.15681
859.784	1.16571
862.677	1.80266
865.569	0.46611
868.462	0.002136
871.355	0.312729
874.248	0.370865
877.14	0.707428
880.033	0.173508
882.926	0.542633
885.818	0.59021
888.711	0.240967
891.604	0.754303
894.496	1.86012
897.389	3.18178
900.282	6.4717
903.175	9.62264
906.067	15.2118
908.96	22.5655
911.853	30.7967
914.745	37.356
917.638	41.1209
920.531	48.355
923.423	57.7697
926.316	77.7549
929.209	103.856
932.102	115.503
934.994	92.5823
937.887	51.6958
940.78	26.1712
943.672	14.9859
946.565	9.46101
949.458	6.32239
952.351	5.57956
955.243	6.29202
958.136	9.50163
961.029	17.6047
963.921	28.8809
966.814	41.5771
969.707	58.0385
972.599	70.483
975.492	73.5344
978.385	85.7434
981.278	107.354
984.17	139.879
987.063	172.217
989.956	187.458
992.848	174.032
995.741	132.338
998.634	88.2783
1001.53	58.0224
1004.42	40.1024
1007.31	30.4072
1010.21	24.1988
1013.1	21.8383
1015.99	17.8373
1018.88	8.90637
1021.77	3.72377
1024.67	0.28894
1027.56	1.77702
1030.45	1.2094
1033.35	0.401306
1036.24	0.326782
1039.13	2.0228
1042.02	4.93648
1044.92	8.05954
1047.81	10.5211
1050.7	15.1249
1053.6	21.7555
1056.49	27.7885
1059.38	26.105
1062.27	20.3236
1065.17	13.4311
1068.06	9.02267
1070.95	4.04002
1073.84	2.74381
1076.74	1.74519
1079.63	1.43225
1082.52	2.15894
1085.41	2.2429
1088.31	1.34227
1091.2	0.852844
1094.09	0.628937
1096.99	0.15329
1099.88	1.37163
1102.77	1.87331
1105.66	4.13269
1108.56	7.38387
1111.45	9.69927
1114.34	9.97929
1117.23	7.9315
1120.13	6.59738
1123.02	6.00615
1125.91	3.91473
1128.81	3.64296
1131.7	4.43648
1134.59	3.9713
1137.48	4.26381
1140.38	2.41843
1143.27	1.59149
1146.16	2.3087
1149.05	1.45911
1151.95	2.49757
1154.84	0.312469
1157.73	0.605804
1160.62	0.228745
1163.52	0.247177
1166.41	0.701797
1169.3	0.39447
1172.2	1.19843
1175.09	0.97197
1177.98	2.56976
1180.87	3.17038
1183.77	4.47652
1186.66	4.47994
1189.55	2.82893
1192.44	1.57451
1195.34	1.16472
1198.23	0.54924
1201.12	1.1613
1204.02	0.838242
1206.91	1.44582
1209.8	0.961655
1212.69	2.47641
1215.59	3.93562
1218.48	3.23943
1221.37	4.79153
1224.26	4.77469
1227.16	4.63809
1230.05	5.69083
1232.94	2.75082
1235.84	2.68718
1238.73	2.49408
1241.62	2.95132
1244.51	2.56491
1247.41	3.12587
1250.3	2.06912
1253.19	1.80759
1256.08	1.95976
1258.98	2.00397
1261.87	2.39056
1264.76	1.19691
1267.65	2.42335
1270.55	1.70181
1273.44	1.61845
1276.33	0.364975
1279.23	1.33914
1282.12	2.38663
1285.01	2.21275
1287.9	2.15015
1290.8	2.75942
1293.69	1.18986
1296.58	0.568268
1299.47	0.132355
