Measurement: Raman, 780 nm, unoriented, Raman Data Processed
Mineral: Wadeite
Rruff sample: R060036
Ideal chemistry: K_2_ZrSi_3_O_9_
Locality: Walgidee, Western Australia, Austrailia
Source: University of Arizona Mineral Museum
Description: Tan colored water worn prismatic crystals, associated with fluorapatite
Measured chemistry: K_2.00_Zr_1.00_(Si_2.95_Ti_0.05_)_Î£=3_O_9_
Raman shift (cm-1)	intensity
102.288	0
105.663	10.4734
109.038	19.5598
112.413	51.4729
115.787	105.421
119.162	191.631
122.537	340.085
125.912	374.279
129.287	170.804
132.662	29.4307
136.036	6.21655
139.411	8.81836
142.786	16.1807
146.161	51.154
149.536	129.471
152.911	247.601
156.285	206.357
159.66	80.3027
163.035	61.1096
166.41	90.751
169.785	148.95
173.159	234.067
176.534	329.947
179.909	465.948
183.284	651.04
186.659	852.645
190.033	1003.91
193.408	911.474
196.783	691.849
200.158	477.754
203.533	325.378
206.907	222.792
210.282	158.365
213.657	105.468
217.032	69.791
220.407	48.9382
223.782	35.1753
227.156	29.1113
230.531	20.1318
233.906	15.3308
237.281	10.613
240.656	5.41162
244.03	2.06348
247.405	5.42603
250.78	4.90796
254.155	4.0647
257.53	0.259277
260.904	3.45728
264.279	7.33179
267.654	3.94653
271.029	4.50732
274.404	11.6357
277.779	13.4692
281.153	17.5593
284.528	7.16309
287.903	1.33911
291.278	7.42505
294.653	0.652344
298.027	3.6438
301.402	2.67627
304.777	5.97144
308.152	1.39356
311.527	4.50928
314.902	9.47559
318.276	8.14185
321.651	11.071
325.026	13.7654
328.401	25.6133
331.776	38.0872
335.151	58.3274
338.525	93.6145
341.9	182.558
345.275	198.631
348.65	79.3987
352.024	86.7981
355.399	128.47
358.774	174.464
362.149	255.487
365.524	386.942
368.899	572.237
372.273	563.41
375.648	334.915
379.023	222.324
382.398	167.006
385.773	94.2803
389.147	47.884
392.522	18.5271
395.897	8.54492
399.272	2.02759
402.647	0.464111
406.022	3.64038
409.396	2.30176
412.771	3.47803
416.146	4.58228
419.521	11.1572
422.896	25.3113
426.27	38.4121
429.645	83.7395
433.02	121.748
436.395	79.4641
439.77	31.0503
443.144	14.821
446.519	6.78809
449.894	3.54688
453.269	1.08814
456.644	1.73877
460.019	1.23169
463.393	2.00903
466.768	1.87012
470.143	17.4221
473.518	50.5352
476.893	94.4898
480.267	142.679
483.642	237.93
487.017	384.097
490.392	633.331
493.767	606.591
497.142	278.648
500.516	140.625
503.891	108.011
507.266	108.067
510.641	133.93
514.016	177.475
517.39	180.11
520.765	136.543
524.14	74.2798
527.515	36.3093
530.89	20.3359
534.264	8.53125
537.639	11.4963
541.014	26.5418
544.389	56.4033
547.764	101.746
551.139	158.211
554.513	243.602
557.888	389.589
561.263	577.808
564.638	588.207
568.013	319.03
571.388	132.511
574.762	71.9228
578.137	36.124
581.512	28.6204
584.887	32.8533
588.261	22.1457
591.636	9.23486
595.011	4.78125
598.386	7.15747
601.761	6.22119
605.136	4.79712
608.51	8.47632
611.885	22.52
615.26	37.1348
618.635	60.1675
622.01	113.465
625.385	166.133
628.759	247.605
632.134	236.292
635.509	133.196
638.884	74.0969
642.259	43.4221
645.633	31.0657
649.008	20.9353
652.383	13.4302
655.758	8.46191
659.133	9.77783
662.507	4.27759
665.882	3.49146
669.257	5.61816
672.632	3.74536
676.007	9.25049
679.381	6.21143
682.756	3.66943
686.131	0.694824
689.506	2.03149
692.881	4.73853
696.256	8.22363
699.63	7.28125
703.005	0.163574
706.38	8.54956
709.755	8.9502
713.13	14.2239
716.505	7.87988
719.879	15.5571
723.254	28.7646
726.629	30.8772
730.004	46.8181
733.379	52.9929
736.753	48.2351
740.128	31.5059
743.503	15.4416
746.878	11.0666
750.253	13.4128
753.627	3.20996
757.002	4.58081
760.377	3.47388
763.752	7.03516
767.127	7.72974
770.501	5.42114
773.876	2.39575
777.251	2.68359
780.626	9.48682
784.001	1.68555
787.376	11.5039
790.75	26.2358
794.125	16.2642
797.5	9.19043
800.875	12.063
804.25	12.9663
807.625	24.292
810.999	17.2583
814.374	15.4182
817.749	19.1467
821.124	34.7437
824.499	39.1252
827.873	36.8152
831.248	32.0991
834.623	31.2427
837.998	28.0906
841.373	20.6929
844.747	19.1953
848.122	12.8955
851.497	14.1665
854.872	15.7395
858.247	19.5701
861.621	12.0225
864.996	9.78174
868.371	1.95606
871.746	5.23144
875.121	0.171875
878.495	6.86694
881.87	1.42773
885.245	6.82007
888.62	0.502441
891.995	0.947266
895.37	0.984131
898.744	5.82251
902.119	8.56323
905.494	22.7629
908.869	36.9995
912.244	62.2544
915.619	76.154
918.993	84.5649
922.368	92.3977
925.743	128.718
929.118	182.477
932.493	212.048
935.867	143.477
939.242	75.4238
942.617	32.3953
945.992	17.0195
949.367	12.281
952.741	19.3213
956.116	30.5818
959.491	59.9768
962.866	98.3948
966.241	163.001
969.615	233.154
972.99	283.448
976.365	320.685
979.74	405.478
983.115	536.149
986.49	680.96
989.864	775.189
993.239	700.234
996.614	498.43
999.989	305.602
1003.36	186.251
1006.74	113.017
1010.11	78.5764
1013.49	55.7329
1016.86	42.7483
1020.24	13.3584
1023.61	2
1026.99	4.04858
1030.36	3.85229
1033.74	4.61987
1037.11	11.4475
1040.49	17.1826
1043.86	24.0361
1047.24	32.4048
1050.61	52.6914
1053.99	88.1797
1057.36	94.7786
1060.74	91.5508
1064.11	59.1082
1067.48	33.8523
1070.86	24.5483
1074.23	14.1977
1077.61	7.51758
1080.98	16.0986
1084.36	10.3674
1087.73	10.9844
1091.11	4.21582
1094.48	1.22778
1097.86	2.38257
1101.23	2.33496
1104.61	0.0896
1107.98	10.7368
1111.36	12.4617
1114.73	16.1382
1118.11	6.89209
1121.48	9.01709
1124.86	5.88696
1128.23	8.27783
1131.61	0.792969
1134.98	8.77197
1138.36	18.4827
1141.73	12.6504
1145.11	13.8523
1148.48	9.07031
1151.86	15.3372
1155.23	14.4722
1158.61	14.3191
1161.98	16.1226
1165.36	14.7888
1168.73	22.209
1172.1	27.343
1175.48	28.7534
1178.85	38.4841
1182.23	29.083
1185.6	28.1419
1188.98	26.1973
1192.35	28.54
1195.73	31.665
1199.1	20.6685
1202.48	20.8633
1205.85	15.6162
1209.23	14.688
1212.6	15.2656
1215.98	15.9758
1219.35	8.90552
1222.73	6.49854
1226.1	11.5173
1229.48	2.02051
1232.85	5.02173
1236.23	7.40356
1239.6	6.1958
1242.97	2.12915
1246.35	2.30664
1249.72	5.76929
1253.1	11.8208
1256.47	19.123
1259.85	20.2385
1263.22	14.9365
1266.6	6.00342
1269.97	5.47314
1273.35	12.4744
1276.72	10.7932
1280.1	5.61377
1283.47	2.12524
