Measurement: Raman, 532 nm, unoriented, Raman Data Processed
Mineral: Wadeite
Rruff sample: R130537
Ideal chemistry: K_2_ZrSi_3_O_9_
Locality: Potash Corporation of Saskatchewan mine, Penobsquis, Kings County, New Brunswick, Canada
Source: Donald M Doell and Brian Roulston
Description: Colorless grains, associated with anhydrite and boracite, embedded in halite. Halite is dissolved in water.
Raman shift (cm-1)	intensity
181.446	0
184.339	10.1482
187.231	32.9228
190.124	52.349
193.017	58.4428
195.909	53.9383
198.802	49.5763
201.695	40.4815
204.588	24.8086
207.48	15.9205
210.373	9.23809
213.266	6.38384
216.158	3.89335
219.051	4.14
221.944	2.94731
224.836	3.09905
227.729	0.725876
230.622	0.460899
233.514	0.459648
236.407	0.217361
239.3	0.753693
242.193	0.135971
245.085	0.775368
247.978	0.550995
250.871	1.09801
253.763	1.00353
256.656	0.157509
259.549	0.278343
262.442	0.346802
265.334	0.938301
268.227	1.96299
271.12	2.71023
274.012	2.76892
276.905	3.62461
279.798	4.43919
282.69	4.42768
285.583	2.1255
288.476	3.02183
291.368	3.01697
294.261	2.59383
297.154	2.67513
300.047	1.42027
302.939	2.63798
305.832	0.939842
308.725	2.99456
311.617	1.35322
314.51	1.329
317.403	1.75392
320.296	0.920685
323.188	2.59129
326.081	4.29866
328.974	8.42466
331.866	11.7561
334.759	13.2781
337.652	20.1377
340.544	34.3829
343.437	51.4162
346.33	32.7483
349.223	19.6557
352.115	22.7083
355.008	31.3321
357.901	42.4695
360.793	54.0818
363.686	74.5251
366.579	104.271
369.471	128.162
372.364	116.79
375.257	77.3425
378.149	56.4529
381.042	47.3721
383.935	33.0047
386.828	19.6339
389.72	9.78062
392.613	5.02507
395.506	1.92316
398.398	1.94933
401.291	0.448357
404.184	0.226891
407.077	0.240555
409.969	0.386467
412.862	0.931061
415.755	2.51725
418.647	4.2781
421.54	6.5884
424.433	8.89751
427.325	14.5975
430.218	23.1659
433.111	28.6541
436.003	16.5578
438.896	6.74956
441.789	2.43996
444.682	0.907486
447.574	0.743736
450.467	0.461494
453.36	0.940346
456.252	0.630859
459.145	0.90155
462.038	0.09407
464.93	0.237213
467.823	2.26056
470.716	4.37483
473.609	10.6894
476.501	22.3923
479.394	33.9313
482.287	48.2265
485.179	72.5746
488.072	107.891
490.965	139.79
493.858	113.078
496.75	57.5963
499.643	34.7608
502.536	26.7917
505.428	26.9514
508.321	29.3389
511.214	34.6294
514.106	40.2802
516.999	41.2839
519.892	32.4388
522.784	22.2634
525.677	13.1447
528.57	8.12631
531.463	6.66383
534.355	4.91402
537.248	5.10706
540.141	6.67172
543.033	9.59154
545.926	15.947
548.819	29.1767
551.712	44.0639
554.604	62.0538
557.497	89.8037
560.39	119.661
563.282	128.738
566.175	86.4844
569.068	42.0508
571.96	21.7676
574.853	13.1239
577.746	9.07256
580.639	6.63939
583.531	5.39722
586.424	4.34397
589.317	2.06937
592.209	0.768394
595.102	0.856178
597.995	0.31572
600.888	0.687492
603.78	0.827904
606.673	0.253395
609.566	0.992119
612.458	3.62872
615.351	5.78333
618.244	11.4643
621.136	18.6323
624.029	27.6319
626.922	37.9655
629.814	45.3086
632.707	36.6235
635.6	19.6313
638.493	8.70063
641.385	3.66888
644.278	2.51791
647.171	1.33229
650.063	0.353165
652.956	1.06635
655.849	0.171341
658.741	0.801613
661.634	0.619629
664.527	0.288872
667.42	0.318413
670.312	0.411003
673.205	0.730591
676.098	0.202629
678.99	0.167908
681.883	1.51282
684.776	0.427383
687.668	0.532715
690.561	1.62572
693.454	1.3029
696.347	1.32757
699.239	1.59387
702.132	1.86954
705.025	2.1998
707.917	2.81315
710.81	2.80235
713.703	2.75241
716.596	3.40937
719.488	3.4953
722.381	5.74162
725.274	6.93127
728.166	8.56476
731.059	11.3423
733.952	11.7491
736.844	8.7804
739.737	6.28339
742.63	4.00066
745.523	3.27654
748.415	2.10703
751.308	1.7294
754.201	2.0281
757.093	0.689354
759.986	0.775208
762.879	1.07282
765.771	0.602402
768.664	0.468979
771.557	0.358688
774.449	0.241043
777.342	0.026596
780.235	0.629639
783.128	1.04076
786.02	0.067154
788.913	0.08194
791.806	1.19142
794.698	1.06702
797.591	0.318398
800.484	0.584351
803.376	1.34973
806.269	1.25229
809.162	2.83942
812.055	2.06741
814.947	2.39055
817.84	1.82433
820.733	1.92176
823.625	2.03217
826.518	2.18735
829.411	0.885162
832.303	1.93681
835.196	1.7246
838.089	2.04401
840.982	2.70045
843.874	2.15945
846.767	1.9989
849.66	1.71478
852.552	2.62251
855.445	2.42818
858.338	3.15481
861.231	2.62756
864.123	1.50243
867.016	1.40324
869.909	0.588814
872.801	0.301842
875.694	0.21376
878.587	0.997734
881.479	0.044464
884.372	0.410713
887.265	0.306038
890.158	0.432228
893.05	0.280937
895.943	1.2871
898.836	2.72315
901.728	4.91798
904.621	9.47819
907.514	12.046
910.406	18.5027
913.299	23.9574
916.192	24.8456
919.085	26.1392
921.977	30.32
924.87	37.3074
927.763	47.412
930.655	58.1226
933.548	52.8022
936.441	31.8868
939.333	15.9867
942.226	8.68078
945.119	4.84563
948.011	4.27791
950.904	4.28181
953.797	7.91875
956.69	13.3896
959.582	22.8029
962.475	38.0444
965.368	56.508
968.26	76.6424
971.153	94.0904
974.046	105.496
976.938	117.576
979.831	141.373
982.724	181.702
985.617	223.808
988.509	253.054
991.402	251.231
994.295	207.915
997.187	147.358
1000.08	97.2008
1002.97	64.153
1005.87	44.8878
1008.76	30.9576
1011.65	24.3638
1014.54	18.9532
1017.44	11.2584
1020.33	5.76041
1023.22	1.99633
1026.11	0.209373
1029.01	0.550812
1031.9	0.989525
1034.79	0.675354
1037.68	0.160507
1040.58	0.678658
1043.47	2.78352
1046.36	5.27434
1049.26	6.83376
1052.15	11.145
1055.04	15.9151
1057.93	16.8748
1060.83	15.4063
1063.72	11.4826
1066.61	7.34917
1069.51	3.3095
1072.4	0.752281
1075.29	1.3118
1078.18	0.515388
1081.08	0.19825
1083.97	0.591614
1086.86	0.813568
1089.75	0.260323
1092.65	0.049782
1095.54	0.255081
1098.43	1.11165
1101.33	0.880684
1104.22	0.948921
1107.11	1.32812
1110	1.69714
1112.89	2.42549
1115.79	2.7671
1118.68	2.49663
1121.57	2.42297
1124.47	2.59998
1127.36	3.12727
1130.25	1.89966
1133.14	2.9516
1136.04	1.66318
1138.93	3.19322
1141.82	0.853035
1144.71	1.15146
1147.61	1.33767
1150.5	0.781967
1153.39	0.950783
1156.29	1.50133
1159.18	1.02035
1162.07	0.389931
1164.96	0.510338
1167.86	0.567787
1170.75	1.14509
1173.64	0.694382
1176.54	0.71312
1179.43	0.065903
1182.32	0.411339
1185.21	0.72979
1188.11	0.19725
1191	0.65667
1193.89	0.688011
1196.78	0.1819
1199.68	0.829025
1202.57	0.624695
1205.46	0.695946
1208.35	0.953819
1211.25	1.66608
1214.14	2.88245
1217.03	1.62499
1219.92	0.082169
1222.82	1.49968
1225.71	0.525131
1228.6	0.482903
1231.5	2.00472
1234.39	0.641678
1237.28	0.773949
1240.17	1.05897
1243.07	0.589218
1245.96	1.14349
1248.85	0.130844
1251.74	0.793938
1254.64	0.266403
1257.53	0.795761
1260.42	1.22364
1263.32	0.98143
1266.21	1.77178
1269.1	1.38188
1271.99	1.33173
1274.89	1.2693
1277.78	0.678436
1280.67	0.359581
1283.57	0.62101
1286.46	0.526863
1289.35	0.842514
1292.24	0.468063
1295.13	0.542351
1298.03	0.007591
1300.92	0.744324
