Measurement: Raman, 532 nm, unoriented, Raman Data Processed
Mineral: Wadsleyite
Rruff sample: R090004
Ideal chemistry: Mg_2_SiO_4_
Locality: Synthetic
Source: Hexiong Yang
Description: Colorless crystals
Raman shift (cm-1)	intensity
148.862	0
151.755	2.96265
154.647	1.69641
157.54	2.3045
160.433	3.63458
163.325	9.66708
166.218	7.03958
169.111	6.09396
172.003	5.53342
174.896	10.0041
177.789	8.71201
180.681	6.91534
183.574	5.75388
186.467	7.8894
189.36	5.15704
192.252	1.95602
195.145	1.96429
198.038	1.14639
200.93	2.69861
203.823	3.56348
206.716	2.3703
209.608	0.484222
212.501	3.16959
215.394	2.66409
218.287	7.6171
221.179	12.012
224.072	15.1624
226.965	22.419
229.857	36.5727
232.75	36.4276
235.643	18.8446
238.536	6.73621
241.428	1.29135
244.321	1.9892
247.214	0.758789
250.106	7.08621
252.999	7.24994
255.892	12.0294
258.784	13.9833
261.677	21.5529
264.57	23.716
267.462	20.4783
270.355	17.9081
273.248	16.5812
276.141	15.3207
279.033	14.2256
281.926	13.5243
284.819	8.81522
287.711	8.53113
290.604	6.63571
293.497	6.25317
296.389	6.85117
299.282	6.74805
302.175	0.526947
305.068	1.6182
307.96	2.81726
310.853	2.51492
313.746	0.687134
316.638	0.13089
319.531	0.428619
322.424	3.39264
325.317	4.48538
328.209	5.9556
331.102	4.39423
333.995	4.01508
336.887	5.49103
339.78	5.35727
342.673	11.9426
345.565	13.7246
348.458	12.504
351.351	17.6525
354.243	19.849
357.136	20.0388
360.029	20.2586
362.922	14.8493
365.814	10.5596
368.707	12.0067
371.6	10.3162
374.492	7.80057
377.385	2.70822
380.278	0.875641
383.171	0.735809
386.063	5.60678
388.956	3.44748
391.849	4.87882
394.741	9.51444
397.634	13.8619
400.527	16.1663
403.419	12.7013
406.312	8.81818
409.205	3.50568
412.098	10.8048
414.99	13.5723
417.883	19.935
420.776	32.1455
423.668	42.6454
426.561	56.2679
429.454	48.8153
432.346	39.1332
435.239	42.9372
438.132	54.8047
441.024	82.4869
443.917	111.526
446.81	73.984
449.703	28.0091
452.595	8.00263
455.488	0.885284
458.381	0.067688
461.273	1.11584
464.166	1.53891
467.059	2.28015
469.952	1.75616
472.844	3.0463
475.737	4.95474
478.63	5.95371
481.522	11.0819
484.415	16.1877
487.308	16.7697
490.2	23.2417
493.093	21.76
495.986	14.9466
498.878	11.7416
501.771	7.92032
504.664	6.67618
507.557	6.43201
510.449	1.68118
513.342	1.52664
516.235	0.219421
519.127	3.60901
522.02	2.70145
524.913	1.09674
527.806	7.12997
530.698	14.0545
533.591	19.7257
536.484	40.7074
539.376	60.831
542.269	90.9627
545.162	127.697
548.054	168.744
550.947	200.675
553.84	190.586
556.732	126.081
559.625	71.8764
562.518	42.7683
565.411	31.4869
568.303	24.0632
571.196	22.4293
574.089	26.2629
576.981	30.3002
579.874	39.8901
582.767	50.6143
585.659	54.8352
588.552	42.4609
591.445	30.4417
594.338	26.4228
597.23	23.3971
600.123	20.0219
603.016	24.7483
605.908	30.7307
608.801	40.8787
611.694	52.1924
614.587	64.3955
617.479	73.1821
620.372	77.213
623.265	58.1967
626.157	31.7917
629.05	16.5372
631.943	5.84378
634.835	3.17087
637.728	3.0882
640.621	0.623077
643.514	3.71317
646.406	0.492462
649.299	2.50479
652.192	0.327759
655.084	2.55261
657.977	1.25491
660.87	0.916412
663.762	1.8157
666.655	2.58972
669.548	2.82242
672.441	1.12112
675.333	3.01422
678.226	0.526794
681.119	6.2843
684.011	8.25427
686.904	6.88232
689.797	11.6336
692.689	16.5712
695.582	17.0561
698.475	27.7404
701.367	35.1656
704.26	56.6965
707.153	98.0165
710.046	160.548
712.938	240.257
715.831	349.556
718.724	502.758
721.616	639.655
724.509	603.899
727.402	358.949
730.294	174.963
733.187	91.9562
736.08	52.0808
738.973	29.5889
741.865	18.7282
744.758	6.25159
747.651	3.92065
750.543	3.37048
753.436	0.684082
756.329	4.00134
759.221	1.20184
762.114	13.5873
765.007	30.2061
767.9	50.7058
770.792	73.3481
773.685	109.597
776.578	140.55
779.47	149.64
782.363	104.956
785.256	65.1506
788.149	36.7413
791.041	22.0751
793.934	13.2687
796.827	14.4924
799.719	11.8621
802.612	7.18347
805.505	9.26593
808.397	12.5702
811.29	14.6715
814.183	14.6756
817.076	7.768
819.968	0.061279
822.861	2.23468
825.754	5.60327
828.646	3.64795
831.539	1.69263
834.432	0.9328
837.324	2.67047
840.217	7.92627
843.11	7.99469
846.003	9.78571
848.895	12.0701
851.788	17.3079
854.681	21.345
857.573	28.9192
860.466	24.9789
863.359	25.4387
866.251	26.3586
869.144	23.9435
872.037	31.077
874.929	41.9653
877.822	58.9387
880.715	70.7044
883.608	82.3063
886.5	84.011
889.393	91.4377
892.286	94.2844
895.178	113.247
898.071	135.5
900.964	179.485
903.856	235.663
906.749	311.151
909.642	403.044
912.535	499.191
915.427	609.835
918.32	681.11
921.213	642.044
924.105	482.306
926.998	332.033
929.891	226.065
932.784	153.009
935.676	103.883
938.569	72.3441
941.462	49.0331
944.354	33.4987
947.247	22.2564
950.14	13.4743
953.032	8.539
955.925	3.51544
958.818	5.12317
961.711	3.75293
964.603	3.77026
967.496	3.61084
970.389	2.67761
973.281	2.82159
976.174	0.414856
979.067	2.36682
981.959	4.31122
984.852	0.182434
987.745	0.372498
990.638	0.858826
993.53	2.14441
996.423	2.70459
999.316	1.12598
1002.21	0.820129
1005.1	0.853638
1007.99	1.41095
1010.89	1.00775
1013.78	2.85413
1016.67	1.8595
1019.57	7.16431
1022.46	4.66675
1025.35	4.96905
1028.24	6.15259
1031.13	6.35877
1034.03	5.72784
1036.92	8.18628
1039.81	8.23492
1042.71	7.40997
1045.6	5.33148
1048.49	4.229
1051.38	2.71063
1054.28	1.47595
1057.17	0.80481
1060.06	0.115723
1062.95	2.46783
1065.85	1.11926
1068.74	0.288757
1071.63	5.47492
1074.53	0.560364
1077.42	0.943726
1080.31	1.78424
1083.2	2.23938
1086.1	4.00324
1088.99	2.3183
1091.88	2.53369
1094.78	6.89002
1097.67	11.132
1100.56	11.5781
1103.45	13.6937
1106.35	12.4808
1109.24	13.3673
1112.13	14.7385
1115.02	16.2705
1117.92	17.5678
1120.81	11.3912
1123.7	6.62427
1126.59	7.35883
1129.49	6.36273
1132.38	5.17468
1135.27	6.61591
1138.16	4.14441
1141.06	2.59589
1143.95	1.7442
1146.84	3.49182
1149.74	3.74261
1152.63	6.42896
1155.52	5.48126
1158.41	5.80609
1161.31	9.93207
1164.2	9.59955
1167.09	5.85809
1169.98	2.7478
1172.88	3.9419
1175.77	3.96936
1178.66	5.80609
1181.56	6.14575
1184.45	2.44891
1187.34	3.24658
1190.23	0.605896
1193.13	2.42267
1196.02	0.185913
1198.91	1.82275
1201.81	3.31647
1204.7	2.61688
1207.59	0.079773
1210.48	0.066406
1213.38	1.52008
1216.27	5.41199
1219.16	2.85175
1222.05	4.85498
1224.95	4.79205
1227.84	4.26337
1230.73	2.41443
1233.62	4.90619
1236.52	0.218384
1239.41	3.19861
1242.3	4.45886
1245.19	1.7417
1248.09	7.34528
1250.98	3.95783
1253.87	2.17511
1256.77	1.48004
1259.66	5.97278
1262.55	6.05151
1265.44	4.87073
1268.34	4.3374
1271.23	6.6203
1274.12	8.95404
1277.02	7.71429
1279.91	1.13831
1282.8	1.07294
1285.69	2.60644
1288.59	2.92883
1291.48	0.868958
1294.37	2.13135
1297.26	0.406799
1300.16	1.0979
1303.05	1.16901
