Measurement: Raman, 780 nm, unoriented, Raman Data Processed
Mineral: Wagnerite
Rruff sample: R060456
Ideal chemistry: Mg_2_PO_4_F
Locality: Kara-Su, Kigizstan
Source: Michael Scott
Description: Reddish-brown granular aggregate, variety magniotriplite, polytype wagnerite-Ma5bc
Measured chemistry: (Mg_0.74_Fe^2+^_0.71_Mn_0.53_Ca_0.02_)_Σ=2_(P_1.00_O_4_)(F_0.60_(OH)_0.40_)_Σ=1_
Raman shift (cm-1)	intensity
115.639	0
119.014	2.41379
122.389	2.88685
125.763	4.16113
129.138	4.80244
132.513	2.91409
135.888	4.34586
139.263	4.9259
142.638	2.87804
146.012	0.559437
149.387	0.31929
152.762	2.66679
156.137	0.390545
159.512	5.5633
162.887	1.6414
166.261	2.93709
169.636	0.492607
173.011	0.459557
176.386	4.35649
179.761	2.82238
183.135	3.31367
186.51	0.701637
189.885	5.3591
193.26	0.63242
196.635	5.42229
200.01	4.70929
203.384	5.15334
206.759	1.59118
210.134	3.04497
213.509	2.38896
216.883	3.7083
220.258	5.04879
223.633	3.29642
227.008	0.733261
230.383	2.39613
233.758	1.32082
237.132	2.88155
240.507	4.57942
243.882	5.10934
247.257	6.24805
250.632	3.0389
254.006	3.24725
257.381	3.76359
260.756	5.07129
264.131	1.07382
267.506	3.42881
270.881	2.73544
274.255	0.214905
277.63	1.09436
281.005	1.84669
284.38	6.93373
287.755	1.56152
291.13	0.005909
294.504	1.4689
297.879	1.47585
301.254	2.60976
304.629	2.95446
308.004	1.22663
311.378	1.2186
314.753	3.07877
318.128	1.62597
321.503	3.96242
324.878	3.20772
328.252	1.44426
331.627	1.88343
335.002	1.85305
338.377	0.510984
341.752	2.13941
345.127	2.4433
348.501	1.88813
351.876	0.902523
355.251	1.66196
358.626	1.55689
362.001	1.26228
365.375	1.98431
368.75	2.20493
372.125	1.08692
375.5	3.26886
378.875	2.67828
382.25	2.60794
385.624	1.72735
388.999	0.506697
392.374	2.90171
395.749	2.10215
399.124	1.1118
402.498	2.51036
405.873	6.24427
409.248	7.78217
412.623	8.68419
415.998	7.71646
419.373	15.1063
422.747	19.5724
426.122	25.091
429.497	28.8804
432.872	35.0406
436.247	36.0345
439.622	36.0135
442.996	28.5142
446.371	23.7869
449.746	20.2276
453.121	22.0331
456.496	21.3975
459.87	21.2926
463.245	22.0375
466.62	15.986
469.995	14.9644
473.37	7.63435
476.745	7.32592
480.119	5.36778
483.494	5.42062
486.869	1.81502
490.244	2.87692
493.619	1.58132
496.993	1.0262
500.368	2.39573
503.743	0.235008
507.118	1.27735
510.493	1.39382
513.867	1.89931
517.242	0.214231
520.617	0.397894
523.992	1.0857
527.367	1.34592
530.741	0.612793
534.116	1.43353
537.491	3.70986
540.866	3.84053
544.241	0.885052
547.616	0.86549
550.99	3.17323
554.365	3.69815
557.74	3.64167
561.115	1.23044
564.49	3.56064
567.865	3.48473
571.239	4.9089
574.614	5.59324
577.989	6.22981
581.364	3.77399
584.739	7.55561
588.113	8.8793
591.488	10.0488
594.863	16.4656
598.238	18.9805
601.613	21.6508
604.987	25.9998
608.362	26.9274
611.737	24.1943
615.112	22.7923
618.487	15.514
621.862	14.8451
625.236	11.1093
628.611	7.83575
631.986	6.12788
635.361	2.12793
638.736	2.57722
642.111	0.237478
645.485	1.37861
648.86	0.012281
652.235	2.33837
655.61	1.8002
658.985	2.34222
662.359	3.48114
665.734	0.383682
669.109	2.93193
672.484	2.64318
675.859	3.83764
679.234	3.07105
682.608	2.40209
685.983	3.50035
689.358	3.50795
692.733	2.60842
696.108	0.828329
699.482	1.1166
702.857	1.96839
706.232	3.59482
709.607	2.1005
712.982	0.932297
716.356	1.84401
719.731	0.348499
723.106	0.914406
726.481	2.30013
729.856	0.417488
733.231	0.29878
736.605	2.28551
739.98	3.45409
743.355	3.42249
746.73	3.06894
750.105	4.57071
753.48	5.34065
756.854	8.5244
760.229	11.8198
763.604	13.0388
766.979	15.9942
770.354	14.6611
773.728	17.8082
777.103	18.9516
780.478	20.5586
783.853	24.4178
787.228	23.845
790.602	20.7515
793.977	21.8618
797.352	20.6222
800.727	22.4369
804.102	19.576
807.477	16.6677
810.851	12.6899
814.226	13.1049
817.601	11.3212
820.976	10.2711
824.351	6.13322
827.726	6.14956
831.1	4.98895
834.475	3.19958
837.85	2.58516
841.225	3.53262
844.6	1.97405
847.974	2.79138
851.349	1.93691
854.724	4.01978
858.099	2.94873
861.474	3.55473
864.848	4.16605
868.223	4.51426
871.598	1.93138
874.973	3.94964
878.348	2.73204
881.722	2.35339
885.097	1.85969
888.472	0.632245
891.847	1.69973
895.222	0.536785
898.597	1.99947
901.971	0.190454
905.346	0.788357
908.721	1.56389
912.096	0.036092
915.471	1.84088
918.846	0.714389
922.22	1.40923
925.595	0.867003
928.97	0.691336
932.345	0.274359
935.72	1.27002
939.094	0.449585
942.469	0.363075
945.844	2.51238
949.219	5.88366
952.594	8.69616
955.968	14.039
959.343	19.4321
962.718	33.6028
966.093	57.8859
969.468	85.0436
972.843	121.926
976.217	155.39
979.592	174.017
982.967	178.216
986.342	167.027
989.717	148.414
993.091	114.18
996.466	71.0827
999.841	39.991
1003.22	25.1809
1006.59	14.0281
1009.97	10.4392
1013.34	7.80811
1016.72	9.38962
1020.09	4.33079
1023.47	4.48222
1026.84	6.25893
1030.21	3.16855
1033.59	4.22299
1036.96	6.33457
1040.34	5.56373
1043.71	5.64429
1047.09	5.73719
1050.46	6.43555
1053.84	6.12988
1057.21	4.57114
1060.59	4.51186
1063.96	4.99918
1067.34	4.1461
1070.71	8.07037
1074.09	8.65602
1077.46	10.653
1080.84	10.2258
1084.21	7.75243
1087.59	3.42758
1090.96	1.33371
1094.34	1.60681
1097.71	0.794079
1101.09	1.45259
1104.46	0.51972
1107.84	0.616989
1111.21	2.87407
1114.59	1.39938
1117.96	3.57648
1121.34	2.5319
1124.71	2.36582
1128.08	4.46475
1131.46	5.00758
1134.83	7.71953
1138.21	7.22365
1141.58	6.37403
1144.96	5.2387
1148.33	5.29342
1151.71	5.68492
1155.08	0.87416
1158.46	1.19939
1161.83	0.887617
1165.21	1.34815
1168.58	2.08787
1171.96	0.193986
1175.33	2.82884
1178.71	1.11978
1182.08	1.81152
1185.46	2.95876
1188.83	2.25486
1192.21	4.59991
1195.58	0.20304
1198.95	0.060015
1202.33	1.7132
1205.7	1.85187
1209.08	1.98148
1212.45	3.64648
1215.83	3.36256
1219.2	5.10642
1222.58	3.92917
1225.95	1.26392
1229.33	2.28459
1232.7	1.24645
1236.08	3.32448
1239.45	2.55742
1242.83	0.925022
1246.2	1.50536
1249.58	1.85715
1252.95	1.93959
1256.33	1.98385
1259.7	1.07226
1263.08	0.02542
1266.45	2.48542
1269.83	3.20147
1273.2	2.88411
1276.58	2.31942
1279.95	2.10709
1283.33	1.70904
