Measurement: Raman, 532 nm, unoriented, Raman Data Processed
Mineral: Wagnerite
Rruff sample: R060456
Ideal chemistry: Mg_2_PO_4_F
Locality: Kara-Su, Kigizstan
Source: Michael Scott
Description: Reddish-brown granular aggregate, variety magniotriplite, polytype wagnerite-Ma5bc
Measured chemistry: (Mg_0.74_Fe^2+^_0.71_Mn_0.53_Ca_0.02_)_Σ=2_(P_1.00_O_4_)(F_0.60_(OH)_0.40_)_Σ=1_
Raman shift (cm-1)	intensity
176.791	0
179.684	2.16801
182.577	5.18295
185.469	2.62982
188.362	12.5392
191.255	6.90404
194.147	4.57702
197.04	5.60008
199.933	4.96403
202.825	6.85695
205.718	2.35059
208.611	3.69034
211.504	1.00437
214.396	3.40241
217.289	2.82111
220.182	3.05688
223.074	4.05946
225.967	0.128822
228.86	0.646149
231.752	0.454071
234.645	0.170609
237.538	0.728073
240.43	4.26936
243.323	3.69182
246.216	8.34167
249.109	5.07047
252.001	6.56539
254.894	7.25433
257.787	5.50861
260.679	8.85779
263.572	5.92078
266.465	5.79529
269.358	7.30443
272.25	8.08408
275.143	5.40132
278.036	3.74601
280.928	5.24044
283.821	6.09329
286.714	3.68223
289.606	2.6434
292.499	4.67369
295.392	1.92793
298.284	2.61081
301.177	1.17961
304.07	3.28308
306.963	1.64745
309.855	2.49085
312.748	4.27389
315.641	3.83089
318.533	6.24995
321.426	5.03504
324.319	5.54782
327.212	5.52357
330.104	3.78952
332.997	3.659
335.89	6.49178
338.782	4.9178
341.675	5.29636
344.568	3.75601
347.46	3.41413
350.353	3.40072
353.246	1.02057
356.139	1.68191
359.031	2.65343
361.924	3.77786
364.817	1.85761
367.709	2.56106
370.602	3.46909
373.495	1.0821
376.387	0.224941
379.28	0.123924
382.173	1.27794
385.065	1.41173
387.958	0.591446
390.851	2.74242
393.744	2.10853
396.636	3.1353
399.529	1.82271
402.422	8.23074
405.314	9.58531
408.207	14.85
411.1	18.6385
413.993	22.9943
416.885	29.5144
419.778	41.1992
422.671	49.5874
425.563	59.0935
428.456	66.2062
431.349	68.2847
434.241	65.2064
437.134	66.9029
440.027	65.09
442.92	56.361
445.812	53.9362
448.705	50.9561
451.598	49.0466
454.49	54.4524
457.383	59.9306
460.276	64.3283
463.168	66.2183
466.061	59.7946
468.954	50.9549
471.846	40.1979
474.739	32.0502
477.632	20.9701
480.525	17.8032
483.417	14.6615
486.31	8.66075
489.203	8.31593
492.095	7.41139
494.988	5.69983
497.881	3.89902
500.774	3.09472
503.666	2.40641
506.559	1.51264
509.452	1.51696
512.344	0.896957
515.237	0.91861
518.13	1.86383
521.022	0.918259
523.915	1.86479
526.808	1.45458
529.701	0.312717
532.593	2.14336
535.486	3.93512
538.379	3.90826
541.271	5.24662
544.164	5.15967
547.057	3.36465
549.949	3.54506
552.842	3.16871
555.735	5.63144
558.628	8.58907
561.52	6.20971
564.413	10.5206
567.306	15.7551
570.198	19.0001
573.091	22.8181
575.984	24.0249
578.876	24.2422
581.769	23.4674
584.662	26.4106
587.554	26.664
590.447	34.0515
593.34	44.0481
596.232	56.3521
599.125	65.4808
602.018	74.6268
604.911	84.169
607.803	86.5375
610.696	78.1242
613.589	66.2794
616.481	54.3486
619.374	41.2083
622.267	33.8186
625.159	24.5316
628.052	22.441
630.945	13.2127
633.838	11.822
636.73	6.33079
639.623	4.27174
642.516	1.12323
645.408	1.60564
648.301	0.86356
651.194	1.07516
654.087	2.40818
656.979	2.55254
659.872	2.84162
662.765	4.52513
665.657	4.33432
668.55	1.31725
671.443	6.46176
674.335	5.35483
677.228	5.81355
680.121	6.26912
683.014	4.20317
685.906	3.1331
688.799	5.22087
691.692	4.30736
694.584	1.70293
697.477	1.59258
700.37	1.062
703.263	0.743286
706.155	1.69839
709.048	2.44236
711.941	1.98146
714.833	0.075104
717.726	0.333832
720.619	0.432213
723.511	0.813522
726.404	1.04199
729.297	0.718277
732.189	0.24234
735.082	3.7601
737.975	4.93213
740.868	8.0821
743.76	9.31947
746.653	13.9233
749.546	16.5194
752.438	21.1624
755.331	30.0725
758.224	39.8503
761.116	47.3489
764.009	58.5414
766.902	67.1784
769.795	79.1338
772.687	90.3363
775.58	94.0459
778.473	102.261
781.365	105.678
784.258	112.19
787.151	112.578
790.043	109.968
792.936	106.539
795.829	104.517
798.722	96.8249
801.614	93.1798
804.507	86.3728
807.4	77.8918
810.292	70.7702
813.185	64.4261
816.078	54.5014
818.971	46.8933
821.863	41.2867
824.756	33.1976
827.649	27.0211
830.541	21.3606
833.434	17.3818
836.327	15.4467
839.219	12.8739
842.112	9.32245
845.005	7.58322
847.898	8.54411
850.79	5.78017
853.683	5.11946
856.576	3.1701
859.468	6.89184
862.361	5.13788
865.254	4.78589
868.146	3.42225
871.039	4.32356
873.932	4.39722
876.824	3.9109
879.717	4.13673
882.61	3.00052
885.503	6.33067
888.395	1.89996
891.288	0.829147
894.181	0.424969
897.073	1.33447
899.966	0.588055
902.859	0.395027
905.751	0.708637
908.644	0.411846
911.537	2.25242
914.43	1.71343
917.322	2.62797
920.215	3.1392
923.108	0.330711
926	1.82566
928.893	0.329895
931.786	0.611019
934.678	1.63691
937.571	2.08664
940.464	1.83882
943.357	6.80552
946.249	8.61313
949.142	12.8586
952.035	19.1409
954.927	32.396
957.82	51.9832
960.713	80.6342
963.606	126.481
966.498	193.069
969.391	285.159
972.284	404.872
975.176	534.967
978.069	653.471
980.962	722.407
983.854	724.957
986.747	698.951
989.64	653.207
992.533	556.271
995.425	410.471
998.318	265.057
1001.21	161.636
1004.1	107.478
1007	74.1818
1009.89	50.8081
1012.78	44.1477
1015.67	35.0633
1018.57	32.7702
1021.46	29.4505
1024.35	26.7789
1027.24	26.4595
1030.14	24.4032
1033.03	25.8821
1035.92	27.8011
1038.82	27.9572
1041.71	27.8344
1044.6	27.7005
1047.49	25.8632
1050.39	21.4734
1053.28	17.3523
1056.17	12.7306
1059.07	9.63518
1061.96	8.00356
1064.85	7.1221
1067.74	8.98348
1070.63	9.13793
1073.53	13.427
1076.42	14.8646
1079.31	13.0946
1082.21	11.6861
1085.1	7.6828
1087.99	3.37883
1090.88	0.988297
1093.78	0.648735
1096.67	2.29569
1099.56	0.716106
1102.45	3.07283
1105.35	3.58694
1108.24	1.64025
1111.13	0.20425
1114.03	2.81257
1116.92	3.4939
1119.81	6.53431
1122.7	8.54738
1125.6	13.3465
1128.49	18.4031
1131.38	22.8084
1134.28	28.2023
1137.17	32.1555
1140.06	32.364
1142.95	28.7186
1145.85	20.0076
1148.74	14.2817
1151.63	6.71693
1154.52	5.13105
1157.42	6.4538
1160.31	3.36367
1163.2	1.56545
1166.09	0.945011
1168.99	1.18884
1171.88	0.108616
1174.77	1.85405
1177.66	0.849144
1180.56	1.996
1183.45	3.71859
1186.34	1.97837
1189.24	5.32678
1192.13	4.85326
1195.02	3.6709
1197.91	6.74908
1200.81	3.57931
1203.7	6.45286
1206.59	8.4997
1209.48	6.76699
1212.38	4.93296
1215.27	3.99403
1218.16	3.82818
1221.06	3.65413
1223.95	3.57075
1226.84	6.5223
1229.73	2.60405
1232.63	1.12611
1235.52	3.38504
1238.41	4.03653
1241.31	1.01307
1244.2	2.60294
1247.09	3.06732
1249.98	0.773127
1252.88	2.67974
1255.77	2.96426
1258.66	0.75946
1261.55	0.283327
1264.45	1.41884
1267.34	2.90678
1270.23	0.019176
1273.12	1.7156
1276.02	0.222233
1278.91	0.12726
1281.8	0.481026
1284.69	1.7406
1287.59	2.53959
1290.48	1.84364
1293.37	2.3891
1296.27	2.40296
1299.16	1.11001
1302.05	0.32489
