Measurement: Raman, 532 nm, unoriented, Raman Data Processed
Mineral: Wagnerite
Rruff sample: R070559
Ideal chemistry: Mg_2_PO_4_F
Locality: Panasqueira mine, near Fundão, Portugal
Source: Royal Ontario Museum
Description: Pale orange fragments, intimately associated with panasqueiraite
Measured chemistry: light phase: (Mg_0.88_Fe^2+^_0.63_Mn^2+^_0.47_Ca_0.02_)_Σ=2_(P_1.00_O_4_)(F_0.93_(OH)_0.07_)_Σ=1_; dark phase is panasqueiraite: (Ca_0.99_Mn_0.01_)_Σ=1_(Mg_0.99_Fe_0.01_)_Σ=1_P_1.00_O_4_(OH); OH estimated by charge balance
Raman shift (cm-1)	intensity
130.059	0
133.434	0.207916
136.809	3.07207
140.184	4.88806
143.559	2.69301
146.933	4.31256
150.308	6.64668
153.683	9.51786
157.058	11.8277
160.433	14.287
163.807	18.8739
167.182	17.2488
170.557	19.66
173.932	18.604
177.307	16.5026
180.681	13.3054
184.056	11.0385
187.431	9.7784
190.806	8.47242
194.181	6.00938
197.556	5.03391
200.93	2.93958
204.305	3.0107
207.68	1.63792
211.055	0.187187
214.43	1.57404
217.804	0.745583
221.179	0.258011
224.554	2.28625
227.929	0.35498
231.304	1.88461
234.679	1.73632
238.053	3.01236
241.428	4.18951
244.803	3.20534
248.178	5.08646
251.553	4.85893
254.928	3.15833
258.302	2.36836
261.677	3.17925
265.052	1.5319
268.427	1.54025
271.802	0.258583
275.176	1.77383
278.551	0.492676
281.926	0.730591
285.301	0.021683
288.676	2.37571
292.05	1.58665
295.425	0.133987
298.8	1.10384
302.175	3.09589
305.55	2.97911
308.925	2.1095
312.299	4.32922
315.674	5.02207
319.049	4.1362
322.424	4.2215
325.799	4.48471
329.173	5.25489
332.548	5.0934
335.923	2.58763
339.298	2.69638
342.673	2.34349
346.048	0.912544
349.422	0.768311
352.797	2.05572
356.172	0.948463
359.547	0.628822
362.922	1.0512
366.296	0.208504
369.671	0.755615
373.046	0.794746
376.421	1.13022
379.796	0.994171
383.171	1.69036
386.545	2.5856
389.92	3.32533
393.295	4.913
396.67	5.14001
400.045	8.46461
403.419	12.731
406.794	19.029
410.169	27.4185
413.544	40.1053
416.919	57.6867
420.293	79.6695
423.668	104.747
427.043	118.453
430.418	118.638
433.793	107.499
437.168	100.593
440.542	86.5738
443.917	70.5798
447.292	56.0919
450.667	41.2887
454.042	33.7932
457.416	29.5691
460.791	28.3653
464.166	27.8219
467.541	24.2009
470.916	19.9921
474.291	15.5502
477.665	13.0001
481.04	10.6964
484.415	4.95936
487.79	5.48378
491.165	3.40222
494.539	1.91762
497.914	1.81418
501.289	2.241
504.664	0.978149
508.039	2.47614
511.413	0.978256
514.788	1.57789
518.163	0.928032
521.538	0.120323
524.913	1.5529
528.288	0.765045
531.663	0.874306
535.037	0.339851
538.412	2.18058
541.787	2.79291
545.162	2.24872
548.537	4.48226
551.911	4.2184
555.286	3.10476
558.661	6.24574
562.036	8.8183
565.411	13.6531
568.785	17.2131
572.16	23.2706
575.535	27.2979
578.91	27.8553
582.285	24.9699
585.659	26.0496
589.034	31.7932
592.409	38.9212
595.784	51.3508
599.159	67.3305
602.534	85.4929
605.908	99.2523
609.283	102.618
612.658	92.329
616.033	76.4703
619.408	62.6258
622.783	49.6914
626.157	39.8507
629.532	31.2366
632.907	22.1843
636.282	17.952
639.657	13.4232
643.031	6.47673
646.406	2.80722
649.781	2.10533
653.156	0.594986
656.531	0.414345
659.905	0.838287
663.28	0.861671
666.655	0.383705
670.03	0.630058
673.405	0.228554
676.779	0.129929
680.154	1.31824
683.529	0.201302
686.904	1.64878
690.279	1.82824
693.654	1.19257
697.028	0.240593
700.403	0.846657
703.778	0.227562
707.153	0.664902
710.528	0.005463
713.903	0.792938
717.277	0.484711
720.652	1.17901
724.027	0.56115
727.402	0.038559
730.777	0.31884
734.151	0.042862
737.526	0.913872
740.901	0.878265
744.276	1.86573
747.651	1.92854
751.025	0.786087
754.4	3.42547
757.775	4.98296
761.15	3.31274
764.525	5.83219
767.9	6.37914
771.274	6.22218
774.649	8.52587
778.024	10.0935
781.399	11.1296
784.774	12.0773
788.149	12.771
791.523	11.1405
794.898	11.617
798.273	11.4685
801.648	10.5979
805.023	9.47396
808.397	9.08806
811.772	8.97096
815.147	5.73039
818.522	6.03276
821.897	4.92071
825.271	4.00637
828.646	3.851
832.021	3.16479
835.396	3.99718
838.771	3.07969
842.146	5.44534
845.52	4.23805
848.895	3.91078
852.27	2.7394
855.645	1.78403
859.02	5.23697
862.394	6.03282
865.769	7.21651
869.144	5.30175
872.519	5.61801
875.894	5.53555
879.269	4.59869
882.643	4.22891
886.018	3.3809
889.393	4.31107
892.768	4.84888
896.143	3.03413
899.518	0.753052
902.892	0.208542
906.267	0.588257
909.642	0.481232
913.017	0.952881
916.391	0.026474
919.766	1.25897
923.141	1.54857
926.516	1.62822
929.891	1.43579
933.266	1.07263
936.64	0.544174
940.015	0.891068
943.39	4.5473
946.765	8.08301
950.14	14.2439
953.514	23.7177
956.889	41.8359
960.264	70.183
963.639	119.088
967.014	192.817
970.389	313.058
973.763	468.014
977.138	654.15
980.513	805.03
983.888	859.316
987.263	827.43
990.638	736.563
994.012	570.336
997.387	354
1000.76	192.897
1004.14	109.495
1007.51	69.1225
1010.89	50.5873
1014.26	35.1353
1017.64	26.0868
1021.01	23.0773
1024.39	17.7962
1027.76	17.5492
1031.13	13.7552
1034.51	16.4045
1037.88	18.9419
1041.26	20.2653
1044.63	22.3547
1048.01	22.311
1051.38	21.8715
1054.76	19.7817
1058.13	18.8937
1061.51	16.888
1064.88	15.2381
1068.26	19.9584
1071.63	28.0161
1075.01	34.813
1078.38	41.4176
1081.76	39.1903
1085.13	28.0691
1088.51	15.403
1091.88	6.15501
1095.26	4.22481
1098.63	1.58583
1102.01	0.274933
1105.38	2.10779
1108.76	3.46431
1112.13	2.8224
1115.51	2.6967
1118.88	0.072083
1122.26	3.60179
1125.63	7.56085
1129.01	12.6349
1132.38	16.2376
1135.76	23.3605
1139.13	29.2597
1142.5	28.5286
1145.88	18.4236
1149.25	12.6566
1152.63	7.22305
1156	4.76843
1159.38	4.86468
1162.75	2.5488
1166.13	2.8672
1169.5	1.33269
1172.88	1.61073
1176.25	0.605362
1179.63	1.59268
1183	2.49058
1186.38	0.733994
1189.75	1.93553
1193.13	3.56531
1196.5	3.12611
1199.88	3.30736
1203.25	3.47934
1206.63	5.61363
1210	5.70766
1213.38	3.71883
1216.75	4.00543
1220.12	3.50839
1223.5	2.92821
1226.88	3.75133
1230.25	2.20694
1233.62	2.27628
1237	1.66217
1240.37	2.24316
1243.75	0.027054
1247.12	1.28043
1250.5	0.424286
1253.87	1.29272
1257.25	1.12842
1260.62	1.85826
1264	0.550339
1267.37	2.08446
1270.75	0.775177
1274.12	1.45444
1277.5	1.29659
1280.87	1.9855
1284.25	1.51311
1287.62	1.81075
1291	1.4552
1294.37	1.77951
1297.75	2.44278
1301.12	0.484421
