Measurement: Raman, 780 nm, unoriented, Raman Data Processed
Mineral: Wagnerite
Rruff sample: R070559
Ideal chemistry: Mg_2_PO_4_F
Locality: Panasqueira mine, near Fundão, Portugal
Source: Royal Ontario Museum
Description: Pale orange fragments, intimately associated with panasqueiraite
Measured chemistry: light phase: (Mg_0.88_Fe^2+^_0.63_Mn^2+^_0.47_Ca_0.02_)_Σ=2_(P_1.00_O_4_)(F_0.93_(OH)_0.07_)_Σ=1_; dark phase is panasqueiraite: (Ca_0.99_Mn_0.01_)_Σ=1_(Mg_0.99_Fe_0.01_)_Σ=1_P_1.00_O_4_(OH); OH estimated by charge balance
Raman shift (cm-1)	intensity
129.942	0
132.835	0.493416
135.727	0.875977
138.62	0.838387
141.513	0.314505
144.405	0.079517
147.298	0.542768
150.191	0.826246
153.084	0.917299
155.976	1.25503
158.869	0.864693
161.762	1.39965
164.654	1.35746
167.547	1.21995
170.44	1.57271
173.333	1.43208
176.225	1.57181
179.118	1.54378
182.011	1.17835
184.903	1.1357
187.796	1.38511
190.689	1.57826
193.581	1.40654
196.474	1.40296
199.367	1.16143
202.26	1.30113
205.152	0.358522
208.045	0.861729
210.938	0.871971
213.83	1.01185
216.723	0.194445
219.616	0.446424
222.508	0.963633
225.401	0.331045
228.294	0.708401
231.187	0.377914
234.079	0.639191
236.972	0.229277
239.865	0.670279
242.757	0.513874
245.65	0.688818
248.543	0.523827
251.435	0.282425
254.328	0.178957
257.221	0.019762
260.114	0.32934
263.006	0.302368
265.899	0.331329
268.792	0.157131
271.684	0.055513
274.577	0.084356
277.47	0.194391
280.363	0.285189
283.255	0.249577
286.148	0.042112
289.041	0.665703
291.933	0.699354
294.826	0.468433
297.719	0.394524
300.611	0.513557
303.504	0.594484
306.397	0.534632
309.289	0.314728
312.182	0.211092
315.075	0.305225
317.968	0.833811
320.86	0.813046
323.753	0.734283
326.646	0.389849
329.538	0.509758
332.431	0.409174
335.324	0.178043
338.216	0.072422
341.109	0.186867
344.002	0.308321
346.895	0.12089
349.787	0.187119
352.68	0.390738
355.573	0.260485
358.465	0.173091
361.358	0.209333
364.251	0.560364
367.144	0.243649
370.036	0.327065
372.929	0.34718
375.822	0.403199
378.714	0.109024
381.607	0.418704
384.5	0.006421
387.392	0.422002
390.285	0.020461
393.178	0.408229
396.071	0.121797
398.963	0.567512
401.856	0.741859
404.749	0.903215
407.641	1.51246
410.534	1.96331
413.427	3.39684
416.32	4.71182
419.212	6.31672
422.105	8.10082
424.998	9.35854
427.89	10.6709
430.783	9.62567
433.676	9.37267
436.568	8.78481
439.461	7.97792
442.354	6.4199
445.247	5.54882
448.139	4.20396
451.032	3.31816
453.925	3.23628
456.817	2.86275
459.71	2.49143
462.603	2.65116
465.495	2.5347
468.388	2.03717
471.281	1.85738
474.173	1.53158
477.066	0.987196
479.959	1.03701
482.852	0.647759
485.744	0.230071
488.637	0.435215
491.53	0.259533
494.422	0.434296
497.315	0.174752
500.208	0.112536
503.101	0.30217
505.993	0.350567
508.886	0.254478
511.779	0.276104
514.671	0.076017
517.564	0.015856
520.457	0.219662
523.349	0.113272
526.242	0.101706
529.135	0.013024
532.028	0.111361
534.92	0.086167
537.813	0.002827
540.706	0.42137
543.598	0.077831
546.491	0.511444
549.384	0.276373
552.277	0.189859
555.169	0.371265
558.062	0.802202
560.955	0.593477
563.847	1.26123
566.74	1.30395
569.633	1.57721
572.525	1.95383
575.418	2.7742
578.311	2.86932
581.203	3.10177
584.096	2.9463
586.989	3.39991
589.882	4.07122
592.774	5.00585
595.667	6.02616
598.56	8.05045
601.452	9.42896
604.345	11.0963
607.238	12.393
610.13	12.9216
613.023	12.8023
615.916	11.2999
618.809	10.0516
621.701	8.30717
624.594	7.01425
627.487	5.34616
630.379	4.01039
633.272	2.9753
636.165	2.1113
639.058	1.65488
641.95	1.05806
644.843	0.676249
647.736	0.305608
650.628	0.221414
653.521	0.440782
656.414	0.356389
659.307	0.105441
662.199	0.024654
665.092	0.116986
667.985	0.334258
670.877	0.159035
673.77	0.161834
676.663	0.50671
679.555	0.249436
682.448	0.333366
685.341	0.216996
688.234	0.073701
691.126	0.023958
694.019	0.180016
696.912	0.25169
699.804	0.198682
702.697	0.057687
705.59	0.137926
708.482	0.062338
711.375	0.141064
714.268	0.137038
717.16	0.138673
720.053	0.148408
722.946	0.045503
725.839	0.121525
728.731	0.1252
731.624	0.051645
734.517	0.030564
737.409	0.282857
740.302	0.144086
743.195	0.447712
746.087	0.025602
748.98	0.00694
751.873	0.179171
754.766	0.230588
757.658	0.164146
760.551	0.259999
763.444	0.081032
766.336	0.447266
769.229	0.748896
772.122	0.456757
775.014	0.607702
777.907	0.599201
780.8	0.696654
783.693	0.563728
786.585	0.679175
789.478	0.584202
792.371	0.688737
795.263	0.568904
798.156	0.423622
801.049	1.02081
803.942	0.285561
806.834	0.40877
809.727	0.339778
812.62	0.839779
815.512	0.437004
818.405	0.710448
821.298	0.747325
824.19	0.493162
827.083	0.683375
829.976	0.410015
832.869	0.386544
835.761	0.737544
838.654	0.642654
841.547	0.725502
844.439	0.688946
847.332	0.676942
850.225	0.80765
853.117	0.786759
856.01	0.633285
858.903	0.762384
861.796	1.05977
864.688	1.17129
867.581	1.1782
870.474	0.898778
873.366	1.08975
876.259	1.44639
879.152	1.23978
882.044	0.927424
884.937	1.02648
887.83	0.541433
890.723	0.782794
893.615	0.269844
896.508	0.58553
899.401	0.367059
902.293	0.279719
905.186	0.337326
908.079	0.073907
910.971	0.11255
913.864	0.081786
916.757	0.223042
919.65	0.053357
922.542	0.119189
925.435	0.302586
928.328	0.055383
931.221	0.038426
934.113	0.208736
937.006	0.585278
939.899	0.114068
942.791	0.243776
945.684	0.445948
948.577	0.828842
951.469	1.98266
954.362	2.59241
957.255	4.54858
960.148	6.96898
963.04	10.6699
965.933	16.1084
968.826	24.3487
971.718	33.923
974.611	45.512
977.504	56.5938
980.396	64.9237
983.289	67.5406
986.182	65.9759
989.074	58.7255
991.967	50.4944
994.86	38.174
997.753	24.0341
1000.64	14.9695
1003.54	9.62454
1006.43	6.37556
1009.32	4.62078
1012.22	3.79859
1015.11	2.40096
1018	2.28521
1020.89	1.9165
1023.79	1.92632
1026.68	1.69099
1029.57	1.9182
1032.46	1.91908
1035.36	2.51181
1038.25	3.12782
1041.14	3.62682
1044.04	3.87172
1046.93	4.08158
1049.82	4.51144
1052.71	3.93608
1055.61	3.42122
1058.5	3.56472
1061.39	3.19572
1064.29	3.16463
1067.18	4.17823
1070.07	5.58507
1072.96	6.62242
1075.86	7.36678
1078.75	8.22148
1081.64	7.19983
1084.53	5.46547
1087.43	3.6629
1090.32	1.90863
1093.21	1.09457
1096.1	0.769002
1099	0.126774
1101.89	0.177263
1104.78	0.337036
1107.67	0.121998
1110.57	0.354835
1113.46	0.252147
1116.35	0.104566
1119.25	0.214921
1122.14	0.376035
1125.03	1.10138
1127.92	1.08401
1130.82	1.61573
1133.71	2.09377
1136.6	2.49363
1139.49	2.91285
1142.39	2.40705
1145.28	1.97485
1148.17	1.2157
1151.07	0.651431
1153.96	0.668933
1156.85	0.530895
1159.74	0.506646
1162.64	0.321602
1165.53	0.22978
1168.42	0.047027
1171.32	0.286166
1174.21	0.199222
1177.1	0.046255
1179.99	0.112568
1182.88	0.069489
1185.78	0.306418
1188.67	0.322631
1191.56	0.331091
1194.46	0.254304
1197.35	0.378265
1200.24	0.394646
1203.13	0.63045
1206.03	0.199685
1208.92	0.633577
1211.81	0.614432
1214.7	0.440566
1217.6	0.513129
1220.49	0.447692
1223.38	0.437526
1226.28	0.127311
1229.17	0.268123
1232.06	0.288645
1234.95	0.258611
1237.85	0.040934
1240.74	0.125016
1243.63	0.305032
1246.53	0.183028
1249.42	0.160283
1252.31	0.094465
1255.2	0.048958
1258.1	0.136032
1260.99	0.188354
1263.88	0.314581
1266.77	0.219073
1269.67	0.301471
1272.56	0.247888
1275.45	0.034264
1278.35	0.183332
1281.24	0.404305
1284.13	0.492787
