Measurement: Raman, 780 nm, unoriented, Raman Data Processed
Mineral: Wagnerite
Rruff sample: R050519
Ideal chemistry: Mg_2_PO_4_F
Locality: Kjorrestad, near Bamle, Norway
Source: University of Arizona Mineral Museum
Description: Pale yellow lamellar fragments, associated with isokite, R070526.
Measured chemistry: gray phase: Mg_2.00_(P_1.00_O_4_)(F_0.80_(OH)_0.20_)_Σ=1_ ; light phase: Ca_1.00_Mg_1.00_(P_1.00_O_4_)(F_0.80_(OH)_0.20_)_Σ=1_
Raman shift (cm-1)	intensity
150.231	0
153.124	0.399933
156.016	1.56469
158.909	3.53798
161.802	6.90907
164.694	12.4629
167.587	11.2112
170.48	5.99143
173.373	3.056
176.265	0.504314
179.158	0.664749
182.051	0.2869
184.943	0.419956
187.836	1.24272
190.729	1.49702
193.621	3.30698
196.514	5.17825
199.407	5.9111
202.299	6.60231
205.192	9.7449
208.085	5.73909
210.978	5.46947
213.87	5.57484
216.763	9.29979
219.656	8.5705
222.548	5.98053
225.441	4.60021
228.334	2.85832
231.226	3.77946
234.119	5.22245
237.012	5.05782
239.905	5.15227
242.797	7.29504
245.69	9.65765
248.583	13.1936
251.475	13.8564
254.368	17.1989
257.261	19.5403
260.154	24.3169
263.046	25.938
265.939	20.6904
268.832	14.184
271.724	12.9421
274.617	12.3129
277.51	11.7283
280.402	7.63755
283.295	6.35633
286.188	4.31035
289.08	3.8677
291.973	4.59052
294.866	2.92702
297.759	3.29864
300.651	5.76146
303.544	7.25521
306.437	8.62017
309.329	6.90904
312.222	7.09172
315.115	7.25692
318.007	9.21616
320.9	9.99716
323.793	7.3017
326.686	3.26989
329.578	0.421631
332.471	0.556187
335.364	0.293167
338.256	1.01015
341.149	0.295406
344.042	0.089489
346.935	1.17315
349.827	2.05383
352.72	2.57548
355.613	3.37817
358.505	3.81573
361.398	4.55083
364.291	5.10159
367.183	5.3486
370.076	5.13481
372.969	3.3539
375.861	3.35732
378.754	2.30603
381.647	1.1438
384.54	0.381435
387.432	0.224667
390.325	0.468334
393.218	0.345558
396.11	0.864361
399.003	0.139462
401.896	0.179943
404.788	0.85207
407.681	1.54787
410.574	2.75168
413.467	4.67511
416.359	6.22431
419.252	8.56406
422.145	9.87922
425.037	12.9168
427.93	16.0177
430.823	19.3208
433.716	23.0894
436.608	24.9437
439.501	26.0212
442.394	32.597
445.286	40.771
448.179	53.3461
451.072	66.6317
453.964	78.9272
456.857	91.1044
459.75	94.6498
462.642	84.8395
465.535	62.7524
468.428	43.9131
471.321	36.0292
474.213	32.737
477.106	29.8464
479.999	26.2763
482.891	22.4411
485.784	18.8653
488.677	15.4634
491.57	12.1425
494.462	9.49074
497.355	6.54899
500.248	4.8266
503.14	3.88473
506.033	4.48425
508.926	4.82839
511.818	4.43041
514.711	4.12484
517.604	1.99536
520.496	1.88288
523.389	0.121655
526.282	0.456982
529.175	0.053158
532.067	0.534622
534.96	0.174988
537.853	0.298656
540.745	0.294075
543.638	0.094543
546.531	0.33699
549.423	0.137749
552.316	0.123833
555.209	0.358646
558.102	0.069885
560.994	0.866127
563.887	1.13464
566.78	1.58685
569.672	1.28377
572.565	1.13079
575.458	1.23695
578.351	2.3804
581.243	3.748
584.136	5.20626
587.029	6.22206
589.921	8.75156
592.814	9.61027
595.707	13.3006
598.599	14.0125
601.492	16.2794
604.385	16.503
607.278	18.306
610.17	19.5734
613.063	24.4808
615.956	30.196
618.848	32.8791
621.741	32.0465
624.634	27.0755
627.526	22.9346
630.419	20.6795
633.312	20.1975
636.205	18.1581
639.097	13.4188
641.99	8.91076
644.883	5.77492
647.775	4.65114
650.668	3.46321
653.561	3.73846
656.453	2.41707
659.346	2.30897
662.239	0.726685
665.131	1.11099
668.024	0.619015
670.917	0.218483
673.81	0.45256
676.702	0.360584
679.595	0.097637
682.488	0.076832
685.38	0.391628
688.273	0.101452
691.166	0.135868
694.058	0.395294
696.951	0.033848
699.844	0.146439
702.737	0.126629
705.629	0.387012
708.522	0.38242
711.415	0.120918
714.307	0.576824
717.2	0.373703
720.093	1.93698
722.986	0.530766
725.878	1.1368
728.771	1.77898
731.664	1.46454
734.556	1.07518
737.449	2.18903
740.342	2.55601
743.234	3.00684
746.127	3.79029
749.02	4.14179
751.913	3.88147
754.805	3.51003
757.698	2.65443
760.591	1.6075
763.483	0.362431
766.376	0.563015
769.269	0.040539
772.161	0.12294
775.054	0.052868
777.947	0.015675
780.84	0.101318
783.732	0.231514
786.625	0.14101
789.518	1.1366
792.41	1.47479
795.303	2.02727
798.196	3.22473
801.088	5.4564
803.981	8.38425
806.874	12.7386
809.766	18.1748
812.659	26.0941
815.552	35.3618
818.445	43.8597
821.337	47.8294
824.23	45.7138
827.123	37.4543
830.015	27.6446
832.908	20.8316
835.801	16.8602
838.693	13.1315
841.586	9.90379
844.479	6.80231
847.372	4.78095
850.264	3.01142
853.157	2.14585
856.05	1.85764
858.942	0.891621
861.835	1.11958
864.728	1.03421
867.62	0.582905
870.513	0.974857
873.406	1.45243
876.299	1.31756
879.191	2.44039
882.084	2.84218
884.977	2.97034
887.869	2.94845
890.762	3.2946
893.655	3.00419
896.548	2.04071
899.44	2.47948
902.333	1.85069
905.226	1.92914
908.118	1.44903
911.011	1.21178
913.904	0.974373
916.796	0.63092
919.689	0.181316
922.582	0.42746
925.474	0.538486
928.367	0.156033
931.26	0.170326
934.153	1.72857
937.045	1.06131
939.938	0.39661
942.831	0.145615
945.723	0.615353
948.616	1.02945
951.509	3.03888
954.401	5.36535
957.294	7.81228
960.187	13.6102
963.08	21.0659
965.972	36.9238
968.865	66.6565
971.758	107.245
974.65	154.498
977.543	226.863
980.436	333.941
983.328	395.016
986.221	269.618
989.114	167.003
992.006	152.723
994.899	173.365
997.792	213.495
1000.68	269.272
1003.58	279.249
1006.47	182.381
1009.36	93.43
1012.25	48.1822
1015.15	27.4703
1018.04	18.0454
1020.93	14.9842
1023.83	14.0122
1026.72	11.1811
1029.61	7.19965
1032.5	4.25619
1035.4	5.28397
1038.29	8.7699
1041.18	15.2088
1044.08	24.4793
1046.97	36.6793
1049.86	43.8949
1052.75	54.6215
1055.65	54.3247
1058.54	34.5697
1061.43	22.0556
1064.32	15.4529
1067.22	12.8802
1070.11	12.9016
1073	10.7712
1075.89	3.64242
1078.79	0.74192
1081.68	0.704891
1084.57	0.021076
1087.47	2.91166
1090.36	5.8
1093.25	9.41247
1096.14	17.4539
1099.04	24.8639
1101.93	14.2005
1104.82	2.90805
1107.71	0.877068
1110.61	1.61614
1113.5	1.01405
1116.39	1.00161
1119.29	2.65974
1122.18	1.25546
1125.07	2.09852
1127.96	3.81139
1130.86	5.58894
1133.75	8.65851
1136.64	13.8676
1139.53	16.7748
1142.43	10.4834
1145.32	7.72704
1148.21	8.76952
1151.11	12.7245
1154	18.9506
1156.89	25.1107
1159.78	15.2231
1162.68	6.07942
1165.57	3.42554
1168.46	1.36556
1171.35	1.1663
1174.25	0.13278
1177.14	0.492558
1180.03	0.347647
1182.92	0.227489
1185.82	0.346035
1188.71	0.603626
1191.6	0.700602
1194.49	0.52022
1197.39	0.808674
1200.28	0.719984
1203.17	0.529388
1206.07	0.661568
1208.96	1.17578
1211.85	0.864391
1214.74	1.19568
1217.64	1.18674
1220.53	1.41814
1223.42	1.44095
1226.32	1.30997
1229.21	0.964661
1232.1	1.63329
1234.99	1.29584
1237.89	1.27435
1240.78	1.16118
1243.67	0.53751
1246.56	1.53961
1249.46	0.739765
1252.35	0.573084
1255.24	0.548634
1258.13	0.457069
1261.03	0.527662
1263.92	0.599148
1266.81	0.250402
1269.71	0.3053
1272.6	0.153357
1275.49	0.746611
1278.38	0.038282
1281.28	0.390511
1284.17	0.006823
