Measurement: Raman, 532 nm, unoriented, Raman Data Processed
Mineral: Wagnerite
Rruff sample: R050519
Ideal chemistry: Mg_2_PO_4_F
Locality: Kjorrestad, near Bamle, Norway
Source: University of Arizona Mineral Museum
Description: Pale yellow lamellar fragments, associated with isokite, R070526.
Measured chemistry: gray phase: Mg_2.00_(P_1.00_O_4_)(F_0.80_(OH)_0.20_)_Σ=1_ ; light phase: Ca_1.00_Mg_1.00_(P_1.00_O_4_)(F_0.80_(OH)_0.20_)_Σ=1_
Raman shift (cm-1)	intensity
150.226	0
153.119	1.58742
156.012	9.49005
158.905	14.613
161.797	32.5448
164.69	70.9947
167.583	74.7011
170.475	37.6452
173.368	17.4496
176.261	0.573227
179.153	1.48866
182.046	1.62132
184.939	1.62601
187.832	7.45254
190.724	13.2915
193.617	21.6515
196.51	31.0306
199.402	37.2783
202.295	51.9156
205.188	70.8426
208.08	63.1728
210.973	48.8291
213.866	52.1534
216.758	48.8823
219.651	39.3213
222.544	27.3104
225.437	26.0969
228.329	25.6242
231.222	32.8755
234.115	47.1562
237.007	56.0876
239.9	38.0089
242.793	25.3456
245.685	16.5037
248.578	18.5193
251.471	23.1823
254.364	26.4967
257.256	33.9296
260.149	42.5431
263.042	46.6105
265.934	39.9993
268.827	29.6881
271.72	28.288
274.613	30.2277
277.505	29.3544
280.398	24.6322
283.291	17.6516
286.183	10.3966
289.076	8.23904
291.969	6.83969
294.861	8.42352
297.754	10.2581
300.647	11.1552
303.539	12.3493
306.432	15.3895
309.325	15.1077
312.218	12.621
315.11	12.5912
318.003	14.3102
320.896	16.9815
323.788	15.2214
326.681	4.85886
329.574	0.145172
332.466	1.09283
335.359	0.057953
338.252	3.30795
341.145	1.64075
344.037	1.51962
346.93	0.509155
349.823	2.52646
352.715	5.88046
355.608	9.57965
358.501	12.9892
361.394	16.8061
364.286	19.6191
367.179	25.9628
370.072	26.236
372.964	20.8163
375.857	15.4173
378.75	11.6571
381.642	8.26679
384.535	5.50256
387.428	2.33856
390.32	2.30154
393.213	0.079681
396.106	2.58536
398.999	1.60886
401.891	8.1409
404.784	4.87933
407.677	5.39297
410.569	11.0867
413.462	12.9233
416.355	14.5046
419.248	20.9918
422.14	24.9411
425.033	32.8485
427.926	39.5689
430.818	49.3565
433.711	56.7292
436.604	56.8108
439.496	56.3097
442.389	58.4812
445.282	65.0999
448.174	81.8478
451.067	106.161
453.96	130.658
456.853	149.139
459.745	162.229
462.638	153.075
465.531	120.97
468.423	90.671
471.316	80.4775
474.209	85.9067
477.101	92.1117
479.994	90.9481
482.887	81.2907
485.779	67.37
488.672	48.0709
491.565	37.172
494.458	25.6323
497.35	20.0813
500.243	12.7887
503.136	10.92
506.028	10.3176
508.921	11.1004
511.814	15.6294
514.707	14.1234
517.599	7.52191
520.492	3.05808
523.385	3.46103
526.277	0.270782
529.17	1.09729
532.063	1.24585
534.955	1.27707
537.848	1.19046
540.741	1.70785
543.634	0.02179
546.526	0.5
549.419	1.58627
552.312	1.94617
555.204	3.94589
558.097	4.4017
560.99	2.6471
563.882	6.45193
566.775	10.4149
569.668	8.61762
572.561	9.12058
575.453	8.80453
578.346	14.8764
581.239	20.5002
584.131	25.8024
587.024	34.0544
589.917	43.5131
592.809	51.3667
595.702	59.896
598.595	70.6282
601.487	79.878
604.38	84.1611
607.273	88.8091
610.166	97.2029
613.058	117.722
615.951	139.942
618.844	154.715
621.736	142.75
624.629	117.475
627.522	94.1437
630.414	82.8601
633.307	72.8596
636.2	66.5054
639.093	56.1832
641.985	38.1328
644.878	28.0305
647.771	21.9412
650.663	21.1024
653.556	20.3688
656.449	14.9849
659.341	11.6367
662.234	5.73438
665.127	2.56772
668.02	2.66486
670.912	0.059875
673.805	0.142609
676.698	0.232666
679.59	0.879761
682.483	0.580414
685.376	0.700775
688.269	0.835297
691.161	0.476959
694.054	0.773621
696.947	0.012939
699.839	1.35025
702.732	3.87915
705.625	5.91809
708.517	10.2527
711.41	11.8438
714.303	13.9464
717.196	15.6036
720.088	15.5462
722.981	18.2579
725.874	16.3131
728.766	17.4562
731.659	19.2194
734.552	15.1195
737.444	14.0057
740.337	14.7495
743.23	14.8874
746.122	18.6805
749.015	18.7478
751.908	18.6411
754.801	16.262
757.693	11.2693
760.586	8.73633
763.479	6.74411
766.371	3.99258
769.264	4.34308
772.157	3.31134
775.049	5.86319
777.942	3.14358
780.835	1.61005
783.727	0.656738
786.62	1.45041
789.513	0.884857
792.406	1.53729
795.298	1.96115
798.191	4.22754
801.084	10.3096
803.976	18.8991
806.869	34.0297
809.762	55.4393
812.654	83.8939
815.547	122.011
818.44	152.931
821.333	174.879
824.225	174.944
827.118	146.802
830.011	107.718
832.903	76.8005
835.796	58.3497
838.689	46.226
841.582	36.6465
844.474	23.8686
847.367	14.7761
850.26	9.85117
853.152	6.85077
856.045	4.79233
858.938	6.83279
861.83	0.209167
864.723	0.236084
867.616	0.671478
870.509	2.32968
873.401	1.32486
876.294	4.23883
879.187	7.16666
882.079	9.75205
884.972	9.48373
887.865	10.7611
890.757	7.58057
893.65	7.54047
896.543	8.62454
899.436	6.67017
902.328	6.02884
905.221	4.02283
908.114	3.76373
911.006	1.67065
913.899	3.78464
916.792	4.81665
919.684	4.45639
922.577	1.50305
925.47	2.15942
928.362	3.46936
931.255	3.92273
934.148	3.0404
937.041	1.20743
939.933	0.496368
942.826	1.32684
945.719	2.74472
948.611	6.61618
951.504	12.9948
954.397	20.3858
957.29	30.0804
960.182	48.471
963.075	75.6926
965.968	123.792
968.86	212.218
971.753	365.859
974.646	595.684
977.538	943.319
980.431	1474.79
983.324	1858.95
986.216	1364
989.109	770.343
992.002	628.438
994.895	712.964
997.787	925.602
1000.68	1231.74
1003.57	1363.58
1006.47	971.116
1009.36	510.358
1012.25	265.123
1015.14	146.041
1018.04	90.0403
1020.93	68.7965
1023.82	59.4387
1026.71	56.3568
1029.61	34.027
1032.5	17.3509
1035.39	17.5049
1038.29	28.8625
1041.18	48.1749
1044.07	84.2278
1046.96	136.148
1049.86	176.369
1052.75	216.369
1055.64	230.07
1058.53	155.385
1061.43	91.1308
1064.32	66.4418
1067.21	50.3219
1070.11	41.3235
1073	35.7269
1075.89	15.5645
1078.78	2.28397
1081.68	3.48669
1084.57	0.840393
1087.46	7.33612
1090.35	16.704
1093.25	36.3079
1096.14	68.8753
1099.03	107.766
1101.92	76.0608
1104.82	21.7712
1107.71	1.24551
1110.6	5.43692
1113.49	6.16827
1116.39	1.97214
1119.28	2.23184
1122.17	0.794525
1125.07	5.68491
1127.96	8.45062
1130.85	9.94278
1133.74	18.7131
1136.64	34.8565
1139.53	45.2947
1142.42	32.173
1145.32	25.8922
1148.21	34.3509
1151.1	49.7637
1153.99	79.5256
1156.89	122.058
1159.78	81.2167
1162.67	36.074
1165.56	18.5569
1168.46	11.6373
1171.35	6.41074
1174.24	2.0242
1177.13	1.15707
1180.03	1.79019
1182.92	1.49023
1185.81	3.69852
1188.7	0.501953
1191.6	0.413513
1194.49	1.66043
1197.38	2.58185
1200.28	2.65134
1203.17	1.52988
1206.06	2.50058
1208.95	2.63965
1211.85	3.99188
1214.74	4.99085
1217.63	7.42941
1220.53	4.09384
1223.42	6.62265
1226.31	7.4353
1229.2	4.34143
1232.1	5.37695
1234.99	6.3269
1237.88	4.92023
1240.77	5.09763
1243.67	5.2912
1246.56	3.83691
1249.45	2.66873
1252.35	3.19705
1255.24	3.33679
1258.13	1.95889
1261.02	1.96289
1263.92	2.40814
1266.81	2.4491
1269.7	2.61435
1272.59	0.91507
1275.49	0.144653
1278.38	6.66434
1281.27	1.0575
1284.16	0.239655
1287.06	2.71304
1289.95	1.0145
1292.84	1.93686
1295.73	1.42554
1298.63	3.8797
1301.52	0.002594
