Measurement: Raman, 532 nm, unoriented, Raman Data Processed
Mineral: Waimirite-(Y)
Rruff sample: R130714
Ideal chemistry: YF_3_
Locality: Pitinga mine, Amazon, Brazil
Source: Marcelo B Andrade
Description: Pale pink massive, portion of the original find
Measured chemistry: (Y_0.69_Dy_0.08_Er_0.06_Yb_0.05_Ca_0.03_Gd_0.02_Ho_0.02_Nd_0.01_Sm_0.01_Tb_0.01_Tm_0.01_Lu_0.01_)_Ʃ1.00_(F_2.54_[box]_0.25_O_0.21_)_Ʃ3.00_
Raman shift (cm-1)	intensity
98.4613	0
101.836	1060.74
105.211	2197.65
108.586	3265.49
111.961	3894.95
115.335	4353.94
118.71	3246.28
122.085	1598.45
125.46	456.746
128.835	151.562
132.209	135.762
135.584	184.691
138.959	988.109
142.334	1506.71
145.709	1845.26
149.084	1688.12
152.458	1162.14
155.833	208.816
159.208	94.3789
162.583	111.332
165.958	120.125
169.333	43.2578
172.707	115.035
176.082	148.824
179.457	147.305
182.832	148.613
186.207	915.188
189.581	2035.93
192.956	3577.51
196.331	5693.83
199.706	8209.85
203.081	11111.5
206.455	13919
209.83	16384.7
213.205	18271
216.58	19208.6
219.955	18716
223.329	16789.8
226.704	14139
230.079	11157.5
233.454	8506.1
236.829	6685.8
240.204	5769.93
243.578	5284.5
246.953	5022.45
250.328	4528.89
253.703	3735.37
257.078	2462.35
260.452	1440.27
263.827	1394.84
267.202	1811.57
270.577	2799.93
273.952	4301.27
277.327	5705.56
280.701	6848.98
284.076	7838.87
287.451	9456.14
290.826	10370.5
294.201	9949.25
297.575	8468.52
300.95	6553.35
304.325	5042.59
307.7	3697.73
311.075	2010.2
314.45	327.758
317.824	785.281
321.199	1263.25
324.574	767.852
327.949	380.984
331.324	2056.76
334.699	4230.35
338.073	6643.91
341.448	8721.17
344.823	10816.8
348.198	12687.8
351.573	14116.3
354.947	14950.8
358.322	14135.8
361.697	12120.5
365.072	9348.17
368.447	6285.01
371.822	3655.9
375.196	1614.44
378.571	680.047
381.946	414.688
385.321	724.938
388.696	966.633
392.07	767.734
395.445	846.086
398.82	2015.44
402.195	4452.28
405.57	8095.67
408.945	11908.7
412.319	16186
415.694	19930.7
419.069	22083.4
422.444	22259.7
425.818	19948.4
429.193	16427.8
432.568	12176.4
435.943	9138.31
439.318	7291.34
442.693	6817.41
446.067	6695.68
449.442	6684.17
452.817	6416.94
456.192	6174.67
459.567	5670.31
462.942	5418.55
466.316	5546.38
469.691	5726.56
473.066	5261.96
476.441	4363.27
479.816	3722.38
483.19	3455.33
486.565	3500.06
489.94	3896.42
493.315	4255.44
496.69	4337.73
500.065	4275.25
503.439	3928.31
506.814	2945.59
510.189	1915.91
513.564	649.383
516.939	641.781
520.313	1347.23
523.688	1359.34
527.063	778.992
530.438	228.109
533.813	1782.4
537.188	3671.23
540.562	5637.52
543.937	7758.08
547.312	9967.51
550.687	12419.4
554.062	14321.9
557.436	15889.6
560.811	17060.9
564.186	17472.2
567.561	17480.4
570.936	17263.4
574.311	16476.8
577.685	14916.5
581.06	12890.9
584.435	10984.2
587.81	10195
591.185	10536.3
594.559	11454.9
597.934	13312.9
601.309	15912.5
604.684	19416.8
608.059	23739
611.433	28504.8
614.808	33113.1
618.183	36881.9
621.558	39272.2
624.933	39874.5
628.308	37907.4
631.682	33627.2
635.057	28263.9
638.432	22695.1
641.807	17711.2
645.182	13549.2
648.557	10215.5
651.931	7605.66
655.306	5361.59
658.681	3698.09
662.056	2501.83
665.431	1652.27
668.805	1117.82
672.18	576.527
675.555	139.231
678.93	90.2227
682.305	157.773
685.679	285.981
689.054	206.078
692.429	168.371
695.804	376.414
699.179	248.34
702.553	126.879
705.928	68.0156
709.303	231.957
712.678	424.535
716.053	671.59
719.428	730.035
722.802	932.93
726.177	1064.86
729.552	1164.88
732.927	1301.68
736.302	1352.8
739.677	1545.62
743.051	1541.95
746.426	1484.31
749.801	1605.31
753.176	1442.75
756.551	1244.01
759.925	1055.96
763.3	1020.44
766.675	877.055
770.05	738.652
773.425	842.148
776.799	695.09
780.174	689.613
783.549	707.891
786.924	613.422
790.299	557.035
793.674	486.559
797.048	481.25
800.423	499.301
803.798	405.457
807.173	430.422
810.548	389.785
813.923	369.176
817.297	347.086
820.672	460.18
824.047	262.203
827.422	74.3516
830.797	157.91
834.171	87.1016
837.546	55.8086
840.921	113.141
844.296	235.231
847.671	117.898
851.045	39.1602
854.42	14.7266
857.795	123.156
861.17	174.699
864.545	75.3477
867.92	40.0234
871.294	38.1016
874.669	39.168
878.044	4.47656
881.419	16.4375
884.794	12.1992
888.168	22.0625
891.543	148.488
894.918	191.481
898.293	119.777
901.668	131.066
905.043	178.414
908.417	265.527
911.792	142.828
915.167	154.832
918.542	108.93
921.917	87.3945
925.291	153.254
928.666	119.219
932.041	79.0938
935.416	96.0391
938.791	71.8086
942.165	85.3984
945.54	186.672
948.915	177.535
952.29	159.562
955.665	31.3203
959.04	11.3203
962.414	22.6914
965.789	135.852
969.164	258.371
972.539	191.883
975.914	203.18
979.288	274.301
982.663	212.152
986.038	292.238
989.413	256.445
992.788	213.945
996.163	263.281
999.537	182.277
1002.91	109.449
1006.29	171.977
1009.66	159.316
1013.04	215.43
1016.41	111.562
1019.79	79.7695
1023.16	68.8242
1026.54	45.0977
1029.91	64.957
1033.29	100.875
1036.66	65.1133
1040.04	74.3008
1043.41	131.461
1046.79	38.8359
1050.16	21.1602
1053.53	25.7422
1056.91	23.043
1060.28	79.8242
1063.66	8.67578
1067.03	54.9688
1070.41	35.6406
1073.78	55.9453
1077.16	99.1836
1080.53	70.207
1083.91	96.5859
1087.28	122.422
1090.66	120.734
1094.03	165.266
1097.41	248.328
1100.78	192.211
1104.16	207.106
1107.53	278.606
1110.91	474.508
1114.28	376.551
1117.66	431.562
1121.03	568.078
1124.41	509.316
1127.78	509.566
1131.15	536.141
1134.53	589.434
1137.9	829.285
1141.28	885.172
1144.65	821.312
1148.03	878.785
1151.4	1034.75
1154.78	1182.71
1158.15	1207.66
1161.53	1139.79
1164.9	1245.29
1168.28	1218.11
1171.65	1402.5
1175.03	1510.8
1178.4	1602.76
1181.78	1617.89
1185.15	1660.47
1188.53	1662.27
1191.9	1623.14
1195.28	1532.84
1198.65	1424.15
1202.03	1289.22
1205.4	1285.29
1208.78	1053.93
1212.15	855
1215.53	583.926
1218.9	424.856
1222.28	238.84
1225.65	1.70703
1229.03	206.012
1232.4	28.8984
1235.78	63.5586
1239.15	86.3828
1242.52	213.84
1245.9	412.949
1249.27	565.469
1252.65	665.644
1256.02	648.363
1259.4	700.094
1262.77	606.633
1266.15	260.731
1269.52	151.172
1272.9	91.1094
1276.27	161.902
1279.65	276.164
1283.02	445.293
1286.4	473.184
1289.77	551.094
1293.15	475.488
1296.52	267.301
1299.9	80.293
