Measurement: Raman, 785 nm, unoriented, Raman Data Processed
Mineral: Wairakite
Rruff sample: R061075
Ideal chemistry: Ca(Si_4_Al_2_)O_12_2H_2_O
Locality: Katashina Village, Gunma Prefecture, Japan
Source: Michael Scott
Description: White massive, associated with prehnite and dmisteinbergite, R130087
Raman shift (cm-1)	intensity
119.162	0
122.537	18.1209
125.912	28.8877
129.287	17.0431
132.662	4.39897
136.036	0.442017
139.411	1.37143
142.786	1.27269
146.161	0.621384
149.536	1.2798
152.911	0.52803
156.285	0.981842
159.66	7.56288
163.035	10.8049
166.41	10.6059
169.785	11.4569
173.159	12.1298
176.534	9.55943
179.909	8.98982
183.284	11.6534
186.659	14.31
190.033	20.6917
193.408	21.1323
196.783	13.1872
200.158	4.80198
203.533	0.128555
206.907	1.93225
210.282	3.06046
213.657	6.00468
217.032	4.51598
220.407	6.63305
223.782	9.67243
227.156	16.6266
230.531	25.008
233.906	32.8018
237.281	37.8904
240.656	38.5757
244.03	34.4504
247.405	25.2963
250.78	13.1313
254.155	6.49515
257.53	2.50308
260.904	3.0251
264.279	0.460388
267.654	0.440964
271.029	0.709442
274.404	0.415993
277.779	1.39024
281.153	1.86888
284.528	2.88701
287.903	3.94869
291.278	4.46992
294.653	5.95467
298.027	9.92545
301.402	12.7773
304.777	15.5656
308.152	14.5473
311.527	12.3767
314.902	10.258
318.276	8.71507
321.651	7.45593
325.026	3.93097
328.401	1.1134
331.776	0.207962
335.151	0.33313
338.525	0.475616
341.9	1.5916
345.275	2.21163
348.65	3.4819
352.024	5.85323
355.399	8.01692
358.774	9.81901
362.149	13.578
365.524	20.5042
368.899	27.1132
372.273	27.7481
375.648	25.4592
379.023	21.1404
382.398	15.1849
385.773	10.3331
389.147	5.77735
392.522	2.68323
395.897	0.453041
399.272	1.46726
402.647	0.566498
406.022	0.489212
409.396	0.301712
412.771	1.14643
416.146	2.94383
419.521	3.29643
422.896	1.95938
426.27	1.0645
429.645	0.007359
433.02	0.63274
436.395	0.232407
439.77	0.092354
443.144	0.700249
446.519	2.85421
449.894	4.99572
453.269	4.95716
456.644	9.35958
460.019	13.9478
463.393	21.3165
466.768	31.8478
470.143	48.6424
473.518	72.9415
476.893	92.5054
480.267	96.2308
483.642	81.3174
487.017	68.0832
490.392	65.8117
493.767	80.3476
497.142	105.073
500.516	131.321
503.891	132.053
507.266	93.2558
510.641	52.7811
514.016	30.0366
517.39	19.2888
520.765	12.3348
524.14	7.68996
527.515	5.21692
530.89	5.13322
534.264	2.11806
537.639	1.82572
541.014	1.00735
544.389	0.762981
547.764	0.368446
551.139	0.099827
554.513	0.033287
557.888	0.217411
561.263	0.680943
564.638	0.342865
568.013	0.599216
571.388	0.15662
574.762	0.71875
578.137	0.471512
581.512	1.22832
584.887	0.584412
588.261	2.17698
591.636	3.46703
595.011	4.3712
598.386	5.64118
601.761	4.32962
605.136	2.85091
608.51	3.08838
611.885	3.15804
615.26	4.50797
618.635	6.48317
622.01	12.6917
625.385	23.0712
628.759	39.6446
632.134	47.1438
635.509	26.3022
638.884	13.3241
642.259	7.03447
645.633	4.30672
649.008	3.57857
652.383	3.19166
655.758	2.07476
659.133	2.1404
662.507	2.43971
665.882	2.64137
669.257	1.05707
672.632	0.755234
676.007	0.658791
679.381	0.045895
682.756	0.152851
686.131	0.212076
689.506	0.104633
692.881	0.00873
696.256	0.16231
699.63	0.357252
703.005	1.54831
706.38	1.22197
709.755	1.14849
713.13	0.448978
716.505	0.537712
719.879	0.745626
723.254	1.05946
726.629	1.58033
730.004	1.83236
733.379	3.28817
736.753	1.37136
740.128	2.31757
743.503	1.93426
746.878	2.89934
750.253	4.45205
753.627	5.21097
757.002	6.10531
760.377	4.27829
763.752	3.35648
767.127	1.62601
770.501	0.280294
773.876	1.17202
777.251	1.07104
780.626	0.855532
784.001	0.867067
787.376	0.525354
790.75	0.000141
794.125	0.298775
797.5	0.412388
800.875	1.31023
804.25	1.65925
807.625	1.41996
810.999	1.47541
814.374	0.186338
817.749	0.168077
821.124	1.09875
824.499	0.576761
827.873	1.06725
831.248	0.329988
834.623	0.534229
837.998	1.2386
841.373	2.02864
844.747	0.393396
848.122	0.916136
851.497	0.979954
854.872	1.17738
858.247	0.854095
861.621	0.141125
864.996	0.410938
868.371	0.89213
871.746	0.480881
875.121	0.487827
878.495	0.70558
881.87	0.443092
885.245	0.419918
888.62	0.778351
891.995	0.059624
895.37	0.225986
898.744	0.377659
902.119	0.889637
905.494	0.215746
908.869	0.93416
912.244	0.253498
915.619	0.992002
918.993	1.22674
922.368	1.3443
925.743	1.03207
929.118	0.902586
932.493	1.30573
935.867	1.9014
939.242	2.51272
942.617	3.65728
945.992	3.33741
949.367	2.44889
952.741	1.33803
956.116	1.89282
959.491	1.64453
962.866	1.42336
966.241	0.473787
969.615	0.15991
972.99	0.154245
976.365	0.782339
979.74	0.992596
983.115	1.43218
986.49	1.96391
989.864	4.53677
993.239	8.22782
996.614	13.172
999.989	16.0947
1003.36	11.8242
1006.74	8.20012
1010.11	5.7234
1013.49	4.57558
1016.86	2.70628
1020.24	2.35682
1023.61	3.8083
1026.99	3.3963
1030.36	3.78456
1033.74	4.59525
1037.11	6.95944
1040.49	7.08609
1043.86	3.86583
1047.24	3.19204
1050.61	2.59932
1053.99	1.76471
1057.36	1.42713
1060.74	1.76609
1064.11	0.379459
1067.48	0.159241
1070.86	0.204418
1074.23	0.75226
1077.61	0.119347
1080.98	0.637163
1084.36	0.120424
1087.73	0.166395
1091.11	1.28215
1094.48	2.09358
1097.86	1.74782
1101.23	3.0297
1104.61	4.37943
1107.98	3.84166
1111.36	5.42587
1114.73	5.70919
1118.11	6.2823
1121.48	7.6641
1124.86	10.9435
1128.23	13.3622
1131.61	14.9492
1134.98	14.3147
1138.36	10.9079
1141.73	8.4324
1145.11	6.71558
1148.48	5.17812
1151.86	3.84906
1155.23	2.8475
1158.61	1.56364
1161.98	1.5293
1165.36	0.397167
1168.73	0.676641
1172.1	0.904242
1175.48	1.0085
1178.85	0.219082
1182.23	0.390415
1185.6	0.652588
1188.98	0.368931
1192.35	0.217335
1195.73	0.053471
1199.1	0.347124
1202.48	0.204954
1205.85	0.484533
1209.23	1.06705
1212.6	0.689394
1215.98	0.97691
1219.35	1.33112
1222.73	0.565697
1226.1	0.884842
1229.48	0.821377
1232.85	0.390965
1236.23	0.538586
1239.6	0.569721
1242.97	1.34371
1246.35	0.347549
1249.72	0.516163
1253.1	0.228344
1256.47	1.23902
1259.85	0.684763
1263.22	0.531195
1266.6	0.147533
1269.97	0.696562
1273.35	0.5555
1276.72	0.880518
1280.1	0.344501
1283.47	0.392889
