Measurement: Raman, 532 nm, unoriented, Raman Data Processed
Mineral: Wairakite
Rruff sample: R061075
Ideal chemistry: Ca(Si_4_Al_2_)O_12_2H_2_O
Locality: Katashina Village, Gunma Prefecture, Japan
Source: Michael Scott
Description: White massive, associated with prehnite and dmisteinbergite, R130087
Raman shift (cm-1)	intensity
171.321	0
174.214	0.343323
177.107	1.53162
180	9.95982
182.892	19.4844
185.785	27.8981
188.678	36.8536
191.57	48.9328
194.463	58.3591
197.356	56.2895
200.249	49.9586
203.141	38.4303
206.034	34.2649
208.927	36.2435
211.819	42.0109
214.712	39.2332
217.605	28.541
220.497	22.1385
223.39	20.7326
226.283	18.9063
229.175	22.1137
232.068	24.4122
234.961	24.6616
237.854	26.4708
240.746	29.5537
243.639	31.28
246.532	27.2231
249.424	21.4036
252.317	15.5265
255.21	9.61514
258.103	6.59043
260.995	4.03481
263.888	1.62762
266.781	1.05075
269.673	0.698074
272.566	0.648109
275.459	1.57403
278.351	0.328773
281.244	0.85392
284.137	1.27911
287.029	0.605392
289.922	0.185959
292.815	1.72274
295.708	0.840065
298.6	2.25153
301.493	2.43607
304.386	4.12347
307.278	4.89448
310.171	4.0344
313.064	4.21061
315.957	3.24336
318.849	2.63052
321.742	1.8288
324.635	2.50237
327.527	0.366402
330.42	0.191734
333.313	0.117142
336.205	0.251991
339.098	0.590813
341.991	0.359489
344.884	1.04552
347.776	2.62027
350.669	2.38241
353.562	3.19274
356.454	2.56478
359.347	3.45723
362.24	3.52711
365.132	5.77879
368.025	7.42831
370.918	8.29288
373.81	9.28089
376.703	9.01687
379.596	9.32729
382.489	8.11083
385.381	6.15163
388.274	4.35998
391.167	2.57377
394.059	1.40737
396.952	0.44062
399.845	0.952499
402.738	0.545853
405.63	1.15616
408.523	1.86993
411.416	4.65098
414.308	8.30136
417.201	11.357
420.094	12.4513
422.986	9.57354
425.879	6.10277
428.772	3.91544
431.664	0.006653
434.557	0.784889
437.45	0.424919
440.343	0.053902
443.235	1.75584
446.128	3.60293
449.021	6.85271
451.913	8.73444
454.806	13.3532
457.699	18.3414
460.591	25.466
463.484	35.6665
466.377	50.8412
469.27	71.0217
472.162	97.3488
475.055	127.285
477.948	149.66
480.84	151.602
483.733	131.18
486.626	108.555
489.519	97.0947
492.411	98.6341
495.304	114.698
498.197	144.783
501.089	173.955
503.982	183.947
506.875	153.34
509.767	99.718
512.66	60.5519
515.553	38.4323
518.446	24.5645
521.338	17.6622
524.231	11.944
527.124	9.34863
530.016	5.27396
532.909	4.84241
535.802	3.42787
538.694	1.94698
541.587	2.25793
544.48	0.459595
547.372	1.22466
550.265	0.407501
553.158	0.167641
556.051	0.582985
558.943	0.383827
561.836	0.622856
564.729	0.072807
567.621	0.096794
570.514	0.503578
573.407	0.222649
576.299	0.551598
579.192	0.433395
582.085	1.21125
584.978	1.53338
587.87	2.01783
590.763	4.16351
593.656	4.63005
596.548	6.46943
599.441	6.39566
602.334	5.15512
605.226	4.10686
608.119	4.64487
611.012	5.13908
613.905	6.97257
616.797	10.5117
619.69	14.8305
622.583	20.5868
625.475	30.4234
628.368	48.1063
631.261	65.3225
634.154	58.9466
637.046	32.6194
639.939	16.6322
642.832	9.0776
645.724	6.92642
648.617	4.30167
651.51	3.5227
654.402	2.7286
657.295	2.10479
660.188	1.38846
663.081	0.838593
665.973	2.25385
668.866	0.85215
671.759	0.018326
674.651	0.605888
677.544	1.08865
680.437	0.042847
683.329	0.021172
686.222	0.26606
689.115	0.27494
692.008	0.409988
694.9	1.02679
697.793	1.34582
700.686	1.66677
703.578	2.12878
706.471	1.9547
709.364	1.79197
712.256	1.07488
715.149	0.920219
718.042	1.27969
720.934	1.37511
723.827	2.42082
726.72	3.24477
729.613	1.99287
732.505	3.33546
735.398	2.6005
738.291	3.67386
741.183	3.32315
744.076	4.3593
746.969	6.53006
749.861	8.76852
752.754	11.41
755.647	12.7177
758.54	12.0466
761.432	9.65288
764.325	5.87611
767.218	3.52689
770.11	2.26435
773.003	1.32063
775.896	0.802116
778.788	1.52085
781.681	0.396126
784.574	0.273933
787.467	0.269348
790.359	0.227043
793.252	0.443047
796.145	0.331833
799.037	0.219116
801.93	0.126839
804.823	1.43615
807.716	0.728264
810.608	0.872498
813.501	0.123085
816.394	0.098717
819.286	0.472321
822.179	1.04345
825.072	0.859566
827.964	0.511101
830.857	0.060417
833.75	1.03614
836.643	0.787865
839.535	0.730461
842.428	1.38949
845.321	0.754761
848.213	2.31761
851.106	1.15231
853.999	1.54539
856.891	1.3802
859.784	1.53008
862.677	1.77696
865.569	1.41664
868.462	0.12616
871.355	1.32219
874.248	0.885849
877.14	1.04053
880.033	1.12859
882.926	0.434937
885.818	0.40403
888.711	0.098709
891.604	0.904343
894.496	1.20087
897.389	0.450584
900.282	0.127579
903.175	0.89312
906.067	1.08919
908.96	0.012901
911.853	0.390457
914.745	0.747437
917.638	0.819801
920.531	0.355927
923.423	0.616554
926.316	0.651543
929.209	1.67249
932.102	1.29205
934.994	1.57253
937.887	0.755737
940.78	2.19902
943.672	2.8482
946.565	2.23683
949.458	1.87894
952.351	1.15812
955.243	0.814636
958.136	0.865318
961.029	1.58373
963.921	0.423065
966.814	0.558441
969.707	0.853889
972.599	0.993927
975.492	0.330238
978.385	0.856049
981.278	1.34662
984.17	2.87414
987.063	5.28457
989.956	8.76557
992.848	15.1286
995.741	24.822
998.634	33.2533
1001.53	34.8924
1004.42	25.3693
1007.31	19.7162
1010.21	14.9237
1013.1	10.3772
1015.99	8.10381
1018.88	5.99293
1021.77	5.98721
1024.67	5.76405
1027.56	6.45422
1030.45	8.47174
1033.35	11.5472
1036.24	15.9194
1039.13	16.7247
1042.02	15.0713
1044.92	12.2156
1047.81	8.78942
1050.7	3.51456
1053.6	3.23661
1056.49	1.80524
1059.38	0.751083
1062.27	0.633926
1065.17	0.388176
1068.06	0.236748
1070.95	0.294098
1073.84	0.811745
1076.74	0.676735
1079.63	0.135452
1082.52	0.503395
1085.41	1.36563
1088.31	1.56477
1091.2	2.44279
1094.09	2.04257
1096.99	2.02458
1099.88	2.29105
1102.77	3.4852
1105.66	5.4226
1108.56	6.03817
1111.45	7.34813
1114.34	8.45935
1117.23	10.9331
1120.13	11.0353
1123.02	15.0361
1125.91	17.479
1128.81	22.4236
1131.7	25.5296
1134.59	24.1819
1137.48	19.476
1140.38	14.692
1143.27	11.5711
1146.16	9.32665
1149.05	7.17268
1151.95	5.48663
1154.84	3.67692
1157.73	2.91482
1160.62	1.76476
1163.52	1.8626
1166.41	0.693756
1169.3	1.03847
1172.2	0.905182
1175.09	1.16353
1177.98	0.040787
1180.87	0.319244
1183.77	0.331741
1186.66	1.02313
1189.55	0.35791
1192.44	0.158195
1195.34	0.02903
1198.23	1.23607
1201.12	0.03392
1204.02	0.591125
1206.91	0.007317
1209.8	1.91804
1212.69	0.404877
1215.59	0.634506
1218.48	1.06718
1221.37	0.736336
1224.26	0.418236
1227.16	0.902946
1230.05	0.580421
1232.94	1.64694
1235.84	0.77179
1238.73	0.101166
1241.62	1.60547
1244.51	1.03115
1247.41	0.959747
1250.3	0.839592
1253.19	1.5612
1256.08	0.220955
1258.98	0.78669
1261.87	1.36539
1264.76	1.48666
1267.65	0.769707
1270.55	1.8184
1273.44	0.357941
1276.33	1.47047
1279.23	2.07416
1282.12	1.2286
1285.01	0.281151
1287.9	1.43195
1290.8	0.77314
1293.69	0.520912
1296.58	1.29451
1299.47	0.976921
