Measurement: Raman, 785 nm, unoriented, Raman Data RAW
Mineral: Wakabayashilite
Rruff sample: R060747
Ideal chemistry: (As,Sb)_6_As_4_S_14_
Locality: White Caps mine, Manhattan, Nye County, Nevada, USA
Source: Bob Jenkins
Description: Yellow fibrous aggregates
Measured chemistry: (As_4.49_Sb_1.51_)_Î£=6_As_4.00_S_14.00_
Raman shift (cm-1)	intensity
89.708	82.414
93.083	-2.628
96.458	17.623
99.832	-6.975
103.207	59.362
106.582	-12.304
109.957	1.066
113.332	14.633
116.707	88.59
120.081	86.338
123.456	210.323
126.831	880.133
130.206	2105.59
133.581	3128.37
136.956	2966.15
140.33	2028.02
143.705	2075.51
147.08	3541.2
150.455	4391.33
153.829	3350.61
157.204	2185.18
160.579	2005.04
163.954	2580.14
167.329	3267.84
170.704	3320.9
174.078	3099.97
177.453	3048.92
180.828	2987.55
184.203	3859.98
187.578	4892.4
190.952	6305.82
194.327	4168.99
197.702	3735.64
201.077	6432.86
204.452	8641.01
207.827	6757.99
211.201	2921.95
214.576	2253.85
217.951	1932.17
221.326	2412.6
224.701	3914.01
228.076	6111.78
231.45	5208.97
234.825	1332.76
238.2	807.152
241.575	673.203
244.95	514.705
248.324	645.693
251.699	614.89
255.074	754.54
258.449	730.898
261.824	734.269
265.198	819.421
268.573	947.119
271.948	938.273
275.323	1015.36
278.698	1227.56
282.073	1386.36
285.447	1505.17
288.822	1944.34
292.197	2903.18
295.572	4536.47
298.947	6052.93
302.322	6985.8
305.696	6931.81
309.071	6123.29
312.446	6551.87
315.821	7414.93
319.196	8532.94
322.57	10018
325.945	11552.8
329.32	12224
332.695	12666
336.07	12980.5
339.444	10561.3
342.819	6732.7
346.194	5897.88
349.569	7293.84
352.944	9379.05
356.319	9331.61
359.693	4798.17
363.068	2308.86
366.443	1572.78
369.818	1918.26
373.193	2893.45
376.568	4484.52
379.942	6196.19
383.317	6090.98
386.692	4102.66
390.067	3232.74
393.442	3501.62
396.816	2881.27
400.191	1705.9
403.566	971.138
406.941	647.721
410.316	593.672
413.69	431.691
417.065	503.129
420.44	394.069
423.815	378.841
427.19	400.101
430.565	374.968
433.939	347.724
437.314	459.885
440.689	433.2
444.064	385.832
447.439	442.461
450.814	370.578
454.188	366.085
457.563	359.505
460.938	321.937
464.313	385.826
467.688	208.565
471.062	340.438
474.437	253.44
477.812	283.862
481.187	264.164
484.562	304.565
487.936	423.193
491.311	368.723
494.686	286.16
498.061	250.498
501.436	298.766
504.811	213.667
508.185	177.407
511.56	164.525
514.935	208.166
518.31	291.159
521.685	311.341
525.059	267.688
528.434	368.986
531.809	297.6
535.184	325.354
538.559	280.454
541.933	243.583
545.308	233.049
548.683	160.235
552.058	150.546
555.433	162.886
558.808	262.487
562.182	308.276
565.557	249.575
568.932	207.352
572.307	296.694
575.682	244.971
579.057	282.883
582.431	276.59
585.806	176.728
589.181	216.285
592.556	159.141
595.931	219.928
599.305	247.521
602.68	185.24
606.055	191.991
609.43	239.871
612.805	282.177
616.18	350.133
619.554	240.117
622.929	294.549
626.304	290.087
629.679	188.583
633.054	251.865
636.429	186.76
639.803	154.73
643.178	268.176
646.553	266.569
649.928	318.802
653.303	373.867
656.677	352.704
660.052	308.503
663.427	290.669
666.802	240.574
670.177	166.201
673.552	206.225
676.926	212.631
680.301	249.84
683.676	267.491
687.051	335.684
690.425	164.397
693.8	333.975
697.175	318.453
700.55	340.389
703.925	243.659
707.3	305.148
710.674	144.77
714.049	262.308
717.424	205.537
720.799	175.01
724.174	115.603
727.549	174.666
730.923	261.206
734.298	274.281
737.673	304.82
741.048	281.431
744.423	206.057
747.797	221.33
751.172	224.705
754.547	201.316
757.922	220.908
761.297	168.817
764.672	168.738
768.046	197.159
771.421	236.498
774.796	182.097
778.171	247.819
781.546	226.267
784.92	172.348
788.295	97.156
791.67	166.433
795.045	111.552
798.42	219.179
801.794	143.21
805.169	173.998
808.544	177.522
811.919	240.541
815.294	163.116
818.669	161.257
822.043	154.029
825.418	132.674
828.793	132.579
832.168	173.108
835.543	102.585
838.917	162.794
842.292	159.453
845.667	127.924
849.042	183.1
852.417	200.831
855.792	220.495
859.166	228.436
862.541	142.002
865.916	177.926
869.291	90.501
872.666	99.975
876.041	156.79
879.415	94.645
882.79	221.013
886.165	238.351
889.54	244.206
892.915	200.655
896.289	153.78
899.664	114.965
903.039	163.576
906.414	154.708
909.789	61.309
913.164	139.281
916.538	144.925
919.913	36.86
923.288	217.482
926.663	223.772
930.038	168.18
933.412	65.694
936.787	125.151
940.162	164.198
943.537	187.249
946.912	99.235
950.286	111.195
953.661	94.454
957.036	68.526
960.411	99.268
963.786	132.866
967.161	205.166
970.535	193.914
973.91	198.199
977.285	198.542
980.66	173.82
984.035	174.903
987.409	38.992
990.784	102.883
994.159	15.869
997.534	151.344
1000.91	178.734
1004.28	168.513
1007.66	151.584
1011.03	119.843
1014.41	127.897
1017.78	65.17
1021.16	96.579
1024.53	47.405
1027.91	48.422
1031.28	180.376
1034.66	77.292
1038.03	193.735
1041.41	124.372
1044.78	186.114
1048.16	195.612
1051.53	105.151
1054.91	109.493
1058.28	83.998
1061.65	-1.289
1065.03	120.43
1068.4	34.171
1071.78	88.379
1075.15	129.529
1078.53	157.344
1081.9	214.125
1085.28	237.898
1088.65	232.238
1092.03	138.253
1095.4	74.916
1098.78	99.036
1102.15	109.327
1105.53	119.127
1108.9	86.3
1112.28	29.049
1115.65	152.827
1119.03	143.225
1122.4	99.424
1125.78	199.001
1129.15	84.447
1132.53	97.607
1135.9	57.999
1139.28	134.794
1142.65	20.902
1146.03	140.804
1149.4	140.916
1152.78	160.229
1156.15	204.139
1159.53	89.638
1162.9	117.818
1166.28	80.54
1169.65	150.517
1173.02	-44.083
1176.4	38.294
1179.77	160.347
1183.15	124.256
1186.52	111.732
1189.9	137.023
1193.27	144.673
1196.65	144.867
1200.02	87.037
1203.4	72.044
1206.77	113.407
1210.15	86.248
1213.52	108.906
1216.9	67.798
1220.27	-12.906
1223.65	219.521
1227.02	223.93
1230.4	105.58
1233.77	146.598
1237.15	50.457
1240.52	77.515
1243.9	1.278
1247.27	34.473
1250.64	46.263
1254.02	61.446
1257.39	175.65
1260.77	119.129
1264.14	240.788
1267.52	244.197
1270.89	95.568
