Measurement: Raman, 532 nm, unoriented, Raman Data Processed
Mineral: Wakabayashilite
Rruff sample: R060747
Ideal chemistry: (As,Sb)_6_As_4_S_14_
Locality: White Caps mine, Manhattan, Nye County, Nevada, USA
Source: Bob Jenkins
Description: Yellow fibrous aggregates
Measured chemistry: (As_4.49_Sb_1.51_)_Î£=6_As_4.00_S_14.00_
Raman shift (cm-1)	intensity
83.436	0
86.811	54.295
90.185	55.371
93.56	47.411
96.935	30.055
100.31	198.982
103.685	158.307
107.06	251.412
110.434	909.895
113.809	1977.6
117.184	3471.68
120.559	5784.06
123.934	8198.31
127.308	10922.1
130.683	12927.8
134.058	12800.2
137.433	12145.2
140.808	10070.8
144.182	10123.3
147.557	9730.34
150.932	8882.02
154.307	7925.04
157.682	8605.58
161.057	10754.1
164.431	13320.2
167.806	14170.9
171.181	10893.9
174.556	9504.69
177.931	8758.02
181.305	9758.99
184.68	12578.9
188.055	13896.7
191.43	16971.8
194.805	14337.7
198.18	19386.8
201.554	28044.9
204.929	26176.2
208.304	14838.5
211.679	7506.48
215.054	7024.34
218.428	8248.61
221.803	11137.5
225.178	15909.7
228.553	15988.4
231.928	6894.46
235.303	1833.15
238.677	731.067
242.052	657.056
245.427	642.831
248.802	541.421
252.176	715.038
255.551	662.127
258.926	1040.93
262.301	894.344
265.676	854.977
269.051	1123.19
272.425	1264.33
275.8	1812.33
279.175	2465.13
282.55	3770.61
285.925	6462.66
289.299	10498.4
292.674	16199.7
296.049	21164
299.424	24189.1
302.799	25194.1
306.174	25352.4
309.548	27143.7
312.923	30929.9
316.298	33375.5
319.673	35806.1
323.048	38641.1
326.422	39862.6
329.797	38777.7
333.172	37046.4
336.547	33702.8
339.922	26299.2
343.297	20722.1
346.671	20233.8
350.046	22414.2
353.421	23718
356.796	18132.9
360.171	9609.93
363.545	8093.74
366.92	10809.6
370.295	17072.2
373.67	25136
377.045	32360.2
380.419	36097.6
383.794	34799.8
387.169	35734
390.544	41686.6
393.919	42318.8
397.293	20087.5
400.668	6226.22
404.043	2285.77
407.418	1228.34
410.793	693.269
414.168	470.071
417.542	241.526
420.917	193.407
424.292	120.074
427.667	175.966
431.042	43.331
434.417	122.837
437.791	136.755
441.166	180.315
444.541	140.255
447.916	96.261
451.29	100.089
454.665	58.481
458.04	72.515
461.415	45.302
464.79	32.452
468.165	230.182
471.539	10.095
474.914	85.253
478.289	28.106
481.664	68.869
485.039	0.652
488.414	240.099
491.788	118.356
495.163	26.953
498.538	46.517
501.913	79.029
505.288	117.106
508.662	80.483
512.037	251.83
515.412	100.382
518.787	150.747
522.162	65.94
525.536	47.138
528.911	157.966
532.286	131.64
535.661	5.049
539.036	22.644
542.411	15.72
545.785	94.741
549.16	204.791
552.535	80.222
555.91	198.335
559.284	112.543
562.659	182.722
566.034	76.325
569.409	81.063
572.784	21.644
576.159	113.477
579.533	159.558
582.908	327.763
586.283	254.829
589.658	267.892
593.033	470.886
596.407	492.661
599.782	528.63
603.157	598.381
606.532	658.92
609.907	700.755
613.282	845.157
616.656	1058.59
620.031	1341.14
623.406	1362.98
626.781	1588.4
630.156	1571.09
633.531	1334.34
636.905	1426.65
640.28	1224.94
643.655	1294.3
647.03	1523.59
650.404	1587.13
653.779	1716.98
657.154	1704.93
660.529	1818.85
663.904	1747.42
667.279	1846.28
670.653	1599.67
674.028	1694.13
677.403	1526.89
680.778	1603.47
684.153	1713.36
687.528	1826.61
690.902	1830.85
694.277	1848.9
697.652	1901.52
701.027	1990.89
704.402	1777.76
707.776	1703.77
711.151	1675.77
714.526	1527.47
717.901	1093.38
721.276	1310.38
724.651	1060.46
728.025	842.41
731.4	836.114
734.775	770.917
738.15	799.06
741.524	837.303
744.899	921.361
748.274	936.698
751.649	609.913
755.024	577.176
758.399	491.594
761.773	446.612
765.148	399.728
768.523	169.764
771.898	103.428
775.273	249.461
778.648	160.265
782.022	122.832
785.397	275.219
788.772	83.247
792.147	271.146
795.521	141.161
798.896	69.518
802.271	6.376
805.646	45.55
809.021	50.668
812.396	19.714
815.77	33.819
819.145	134.561
822.52	83.234
825.895	120.666
829.27	33.825
832.644	10.068
836.019	41.89
839.394	76.579
842.769	187.977
846.144	31.168
849.519	71.63
852.893	54.092
856.268	33.612
859.643	117.659
863.018	124.009
866.393	238.84
869.767	212.83
873.142	16.96
876.517	150.025
879.892	18.385
883.267	3.642
886.641	11.981
890.016	63.139
893.391	109.303
896.766	23.251
900.141	133.361
903.516	203.187
906.89	271.18
910.265	113.638
913.64	6.492
917.015	128.269
920.39	53.863
923.764	17.301
927.139	178.086
930.514	171.571
933.889	37.525
937.264	205.12
940.638	246.032
944.013	211.634
947.388	74.708
950.763	73.558
954.138	120.342
957.513	259.649
960.887	25.842
964.262	69.844
967.637	142.722
971.012	80.454
974.387	24.898
977.761	179.093
981.136	254.864
984.511	332.851
987.886	161.446
991.261	176.878
994.635	140.093
998.01	50.425
1001.38	73.966
1004.76	99.374
1008.13	20.796
1011.51	208.232
1014.88	94.856
1018.26	259.713
1021.63	254.597
1025.01	161.789
1028.38	346.739
1031.76	228.645
1035.13	83.09
1038.51	137.127
1041.88	97.274
1045.26	66.011
1048.63	292.767
1052.01	98.99
1055.38	320.549
1058.76	212.904
1062.13	280.6
1065.51	260.772
1068.88	200.328
1072.26	184.853
1075.63	286.895
1079.01	26.844
1082.38	64.035
1085.76	127.188
1089.13	208.945
1092.51	262.439
1095.88	254.193
1099.26	293.228
1102.63	283.654
1106	294.722
1109.38	304.022
1112.75	207.595
1116.13	29.988
1119.5	128.706
1122.88	14.856
1126.25	148.164
1129.63	136.94
1133	84.269
1136.38	275.258
1139.75	223.254
1143.13	133.239
1146.5	271.866
1149.88	87.692
1153.25	198.108
1156.63	138.079
1160	238.595
1163.38	65.437
1166.75	262.39
1170.13	339.677
1173.5	237.004
1176.88	445.928
1180.25	267.366
1183.62	348.267
1187	211.402
1190.38	202.126
1193.75	127.512
1197.12	98.572
1200.5	113.186
1203.87	231.313
1207.25	132.811
1210.62	197.619
1214	245.129
1217.37	242.284
1220.75	249.873
1224.12	140.486
1227.5	125.052
1230.87	141.451
1234.25	91.476
1237.62	182.353
1241	56.798
1244.37	20.306
1247.75	290.705
1251.12	258.867
1254.5	311.393
1257.87	433.107
1261.25	174.308
1264.62	178.039
1267.99	141.437
1271.37	34.278
1274.74	149.088
1278.12	75.415
1281.49	174.085
1284.87	423.432
1288.24	254.285
1291.62	369.88
1294.99	382.212
1298.37	169.676
