Measurement: Raman, 780 nm, unoriented, Raman Data Processed
Mineral: Wakabayashilite
Rruff sample: R150064
Ideal chemistry: (As,Sb)_6_As_4_S_14_
Locality: Jas Roux, La Chapelle En Valgaudemard, Hautes-Alpes, Provence-Alpes-Côte D'Azur, France
Source: Rock Currier
Description: Yellow braded or fibrous crystals, associated with black metallic chabournéite with conchoidal fracture (R140106), red realgar, and colorless massive or tabular celestine.
Raman shift (cm-1)	intensity
92.0421	0
95.4169	462.689
98.7917	157.385
102.166	75.8884
105.541	428.252
108.916	656.084
112.291	75.9392
115.666	131.553
119.041	580.709
122.415	799.516
125.79	1106.49
129.165	1943.79
132.54	2630.37
135.915	3067.73
139.29	3172.49
142.664	1597.78
146.039	978.834
149.414	1305.42
152.789	1404.64
156.163	836.274
159.538	466.374
162.913	628.171
166.288	1085.98
169.663	1388.67
173.038	888.549
176.412	656.59
179.787	570.891
183.162	672.315
186.537	1340.4
189.912	1880.86
193.286	2615.64
196.661	1734.36
200.036	1813.66
203.411	3508.97
206.786	3841.66
210.161	2381.05
213.535	1102.42
216.91	909.949
220.285	776.898
223.66	847.116
227.035	1512.07
230.409	2213.17
233.784	1313.08
237.159	110.528
240.534	64.1706
243.909	79.7695
247.284	63.4411
250.658	52.7602
254.033	42.5008
257.408	16.5311
260.783	4.34168
264.158	36.3788
267.532	68.1429
270.907	123.254
274.282	195.623
277.657	304.382
281.032	467.288
284.406	670.766
287.781	959.042
291.156	1384.82
294.531	2071.68
297.906	2805.84
301.281	3331.24
304.655	3586.16
308.03	3444.8
311.405	3286.63
314.78	3673.18
318.155	4173.09
321.529	4747.66
324.904	5405.79
328.279	5695.24
331.654	5422
335.029	5203.83
338.404	5109.4
341.778	4047.18
345.153	2740.52
348.528	2281.65
351.903	2497.45
355.278	3004.33
358.652	2695.81
362.027	1278.79
365.402	660.133
368.777	695.121
372.152	1045.92
375.526	1735.38
378.901	2665.41
382.276	3466.54
385.651	3246.6
389.026	2532.77
392.401	2611.33
395.775	2746.21
399.15	1436.73
402.525	467.105
405.9	78.5026
409.275	37.3807
412.649	51.8392
416.024	47.8952
419.399	42.5898
422.774	29.2624
426.149	18.7711
429.524	5.44443
432.898	11.4998
436.273	23.7792
439.648	34.8245
443.023	45.5562
446.398	55.175
449.772	68.9022
453.147	81.184
456.522	91.8088
459.897	106.295
463.272	117.086
466.647	122.034
470.021	129.697
473.396	111.179
476.771	102.25
480.146	87.3829
483.521	75.5049
486.895	67.6118
490.27	61.9634
493.645	57.7253
497.02	55.9588
500.395	54.0386
503.769	51.9626
507.144	49.6808
510.519	44.8666
513.894	42.7179
517.269	44.7828
520.644	41.6973
524.018	36.1993
527.393	35.5809
530.768	32.6761
534.143	28.045
537.518	23.3846
540.892	19.1307
544.267	17.1383
547.642	15.5773
551.017	14.4491
554.392	10.1459
557.766	8.87333
561.141	4.95416
564.516	4.47011
567.891	2.47768
571.266	0.029018
574.64	3.1163
578.015	1.77353
581.39	1.6908
584.765	3.67507
588.14	1.4767
591.515	1.81304
594.889	0.776436
598.264	1.89523
601.639	4.73415
605.014	3.91009
608.389	4.39152
611.764	3.68362
615.138	2.00511
618.513	3.45183
621.888	7.0705
625.263	10.0421
628.638	15.8476
632.012	16.4687
635.387	15.2921
638.762	14.8157
642.137	13.6382
645.512	15.0952
648.886	14.6999
652.261	16.4354
655.636	16.5926
659.011	18.4153
662.386	16.4262
665.76	19.3
669.135	19.2555
672.51	23.4715
675.885	19.8351
679.26	20.0577
682.635	21.4091
686.009	18.9371
689.384	21.1218
692.759	20.877
696.134	21.5594
699.509	23.9796
702.884	24.1898
706.258	23.7885
709.633	21.9375
713.008	19.878
716.383	15.9345
719.758	14.1257
723.132	12.6031
726.507	7.82471
729.882	6.42392
733.257	1.82972
736.632	0.717842
740.006	0.98732
743.381	1.23112
746.756	2.91267
750.131	5.05336
753.506	6.95733
756.88	8.90328
760.255	7.73446
763.63	3.61735
767.005	1.87476
770.38	1.25679
773.755	1.10923
777.129	0.221149
780.504	0.209377
783.879	0.380573
787.254	0.424141
790.629	0.257317
794.003	0.359489
797.378	1.16259
800.753	3.92094
804.128	1.1529
807.503	0.264894
810.878	1.32727
814.252	0.11725
817.627	3.48467
821.002	3.0893
824.377	5.90263
827.752	4.32556
831.126	2.90297
834.501	2.49201
837.876	3.50984
841.251	4.40155
844.626	3.87995
848	4.63909
851.375	5.0577
854.75	5.35144
858.125	5.77586
861.5	4.42003
864.875	4.63976
868.249	3.08477
871.624	4.8365
874.999	3.95673
878.374	3.56328
881.749	3.91792
885.123	2.42633
888.498	3.62818
891.873	3.57985
895.248	3.88787
898.623	2.97697
901.997	1.64294
905.372	2.86631
908.747	2.57887
912.122	1.62362
915.497	3.71998
918.872	2.3774
922.246	2.60582
925.621	0.434055
928.996	2.70931
932.371	2.94799
935.746	1.84781
939.12	1.78811
942.495	0.370546
945.87	0.350302
949.245	0.993361
952.62	0.085312
955.995	0.833788
959.369	0.660524
962.744	1.7237
966.119	0.859383
969.494	1.76673
972.869	2.15857
976.243	1.27845
979.618	0.392973
982.993	2.73336
986.368	1.80054
989.743	0.797783
993.117	1.69986
996.492	1.34098
999.867	2.29434
1003.24	1.77933
1006.62	0.996452
1009.99	1.13663
1013.37	1.00635
1016.74	1.30626
1020.12	0.662798
1023.49	1.71913
1026.87	0.934586
1030.24	0.84352
1033.62	1.33325
1036.99	0.779531
1040.37	2.74859
1043.74	3.76865
1047.12	0.606212
1050.49	0.450219
1053.86	0.527905
1057.24	1.24323
1060.61	0.562901
1063.99	1.26355
1067.36	1.11997
1070.74	0.500285
1074.11	2.46518
1077.49	2.51655
1080.86	1.89991
1084.24	0.971409
1087.61	0.597709
1090.99	2.62982
1094.36	2.07002
1097.74	1.31694
1101.11	0.814877
1104.49	1.19966
1107.86	1.10933
1111.24	1.85018
1114.61	1.57101
1117.99	1.04188
1121.36	1.15671
1124.73	0.860018
1128.11	2.39164
1131.48	2.03839
1134.86	2.38043
1138.23	0.835075
1141.61	1.78745
1144.98	0.939547
1148.36	1.12497
1151.73	2.4504
1155.11	1.96309
1158.48	0.121806
1161.86	0.679031
1165.23	1.85636
1168.61	0.767447
1171.98	1.22614
1175.36	0.905606
1178.73	2.33977
1182.11	0.64553
1185.48	1.65807
1188.86	0.791019
1192.23	2.39771
1195.61	0.443466
1198.98	2.64929
1202.36	0.992299
1205.73	2.26088
1209.11	3.18335
1212.48	1.90647
1215.86	1.77305
1219.23	0.300117
1222.61	0.211672
1225.98	1.65793
1229.35	0.875868
1232.73	1.01063
1236.1	1.08997
1239.48	3.16746
1242.85	1.39169
1246.23	0.605185
1249.6	0.440799
1252.98	2.15812
1256.35	2.05938
1259.73	1.6496
1263.1	0.136889
1266.48	0.39165
1269.85	1.18342
1273.23	1.50118
1276.6	2.65719
1279.98	1.39809
1283.35	0.095549
