Measurement: Raman, 532 nm, unoriented, Raman Data Processed
Mineral: Wakabayashilite
Rruff sample: R150064
Ideal chemistry: (As,Sb)_6_As_4_S_14_
Locality: Jas Roux, La Chapelle En Valgaudemard, Hautes-Alpes, Provence-Alpes-Côte D'Azur, France
Source: Rock Currier
Description: Yellow braded or fibrous crystals, associated with black metallic chabournéite with conchoidal fracture (R140106), red realgar, and colorless massive or tabular celestine.
Raman shift (cm-1)	intensity
90.2653	0
93.6401	395.628
97.0149	174.638
100.39	170.092
103.765	1259.99
107.139	1945.84
110.514	105.102
113.889	75.0754
117.264	261.613
120.639	596.527
124.013	899.911
127.388	1561.58
130.763	2419.93
134.138	2894.35
137.513	3102.15
140.888	1809.94
144.262	1131.68
147.637	1331.9
151.012	1770.38
154.387	1398.48
157.762	935.829
161.137	970.042
164.511	1389.18
167.886	1763.81
171.261	1499.73
174.636	1369.13
178.011	1382.78
181.385	1268.16
184.76	2074.93
188.135	3186.6
191.51	4339.75
194.885	3321.58
198.26	2990.38
201.634	5300.8
205.009	6380.92
208.384	4775.78
211.759	2376.72
215.133	2242.52
218.508	1875.29
221.883	1793.35
225.258	2969.61
228.633	4349.98
232.008	3130.66
235.382	375.37
238.757	46.0236
242.132	93.5906
245.507	108.127
248.882	111.192
252.256	88.7711
255.631	64.2027
259.006	23.1101
262.381	19.1951
265.756	86.1077
269.131	160.241
272.505	271.92
275.88	465.55
279.255	769.173
282.63	1187.17
286.005	1749.36
289.38	2700.87
292.754	4142.12
296.129	5782.62
299.504	7009.47
302.879	7569.75
306.254	7317.9
309.628	6977.52
313.003	7697.58
316.378	8604.48
319.753	9443.78
323.128	10885.2
326.502	11466.2
329.877	10854.8
333.252	10348.2
336.627	10100.2
340.002	8285.12
343.377	5629.52
346.751	4682.5
350.126	5230.46
353.501	6447.81
356.876	6248.94
360.251	3066.19
363.625	1373.83
367	1247.43
370.375	1875.86
373.75	2968.47
377.125	4539.98
380.5	6017
383.874	5910.41
387.249	4302.9
390.624	3926.39
393.999	4080.23
397.374	2312.02
400.748	633.033
404.123	75.6729
407.498	84.9168
410.873	101.157
414.248	87.0079
417.623	64.8749
420.997	48.6698
424.372	21.7634
427.747	4.15488
431.122	29.2144
434.497	54.0329
437.872	71.0526
441.246	83.0022
444.621	98.8273
447.996	123.135
451.371	145.881
454.745	176.221
458.12	203.166
461.495	230.475
464.87	231.496
468.245	214.718
471.62	202.685
474.994	177.86
478.369	159.434
481.744	140.153
485.119	130.674
488.494	122.413
491.868	115.711
495.243	114.92
498.618	106.444
501.993	104.064
505.368	98.252
508.743	88.6079
512.117	84.7673
515.492	84.854
518.867	79.0893
522.242	79.8251
525.617	67.8937
528.991	63.2008
532.366	52.4587
535.741	44.504
539.116	38.0821
542.491	32.2332
545.866	27.8467
549.24	26.7749
552.615	21.6272
555.99	15.6759
559.365	9.5865
562.74	3.79503
566.115	0.557007
569.489	5.2178
572.864	6.91594
576.239	8.57282
579.614	10.5289
582.989	2.6046
586.363	4.00626
589.738	9.74243
593.113	15.8451
596.488	24.4734
599.863	31.8129
603.237	31.4423
606.612	33.9716
609.987	32.8763
613.362	31.3217
616.737	38.1298
620.112	50.6395
623.486	66.427
626.861	79.8638
630.236	89.1304
633.611	90.6286
636.986	89.4638
640.361	92.1298
643.735	95.1649
647.11	108.795
650.485	112.191
653.86	117.81
657.235	113.967
660.609	114.023
663.984	110.257
667.359	109.886
670.734	104.336
674.109	102.583
677.484	98.4805
680.858	96.8978
684.233	92.7276
687.608	86.4659
690.983	82.6935
694.357	79.6547
697.732	77.8503
701.107	76.2938
704.482	76.7952
707.857	67.6645
711.232	56.6275
714.606	42.6326
717.981	24.7976
721.356	27.8849
724.731	10.7632
728.106	0.82608
731.481	6.81316
734.855	4.5453
738.23	1.83734
741.605	13.6979
744.98	24.67
748.355	38.3371
751.729	51.5896
755.104	56.2037
758.479	54.0304
761.854	44.1547
765.229	35.2694
768.604	21.932
771.978	14.8277
775.353	4.89156
778.728	0.415695
782.103	1.49937
785.478	1.18916
788.852	4.60968
792.227	2.79677
795.602	2.00359
798.977	0.905991
802.352	0.11042
805.726	1.75722
809.101	2.74652
812.476	1.21189
815.851	0.770378
819.226	2.34001
822.601	7.97815
825.975	7.32977
829.35	12.8165
832.725	13.7516
836.1	11.7054
839.475	16.2241
842.85	17.9627
846.224	17.3433
849.599	15.9745
852.974	20.8485
856.349	21.0028
859.724	24.1239
863.098	20.8281
866.473	20.2154
869.848	18.0405
873.223	14.0859
876.598	13.8653
879.972	12.9858
883.347	11.6795
886.722	10.1522
890.097	8.57798
893.472	10.2007
896.847	8.09808
900.221	9.51842
903.596	9.79255
906.971	5.56306
910.346	4.38345
913.721	8.26836
917.096	7.309
920.47	5.26136
923.845	4.0968
927.22	4.17746
930.595	4.09987
933.97	2.45044
937.344	3.59297
940.719	2.15059
944.094	0.579903
947.469	0.443146
950.844	1.83568
954.218	2.09513
957.593	2.80405
960.968	1.83518
964.343	2.06892
967.718	0.690071
971.092	4.27525
974.467	0.256996
977.842	2.65926
981.217	1.57916
984.592	0.313957
987.967	2.46146
991.341	2.12519
994.716	1.76522
998.091	2.27882
1001.47	1.69311
1004.84	3.21537
1008.22	1.54954
1011.59	2.35149
1014.97	1.67327
1018.34	0.731506
1021.72	0.399269
1025.09	1.45931
1028.46	0.985489
1031.84	3.49828
1035.21	0.521896
1038.59	2.54204
1041.96	1.78538
1045.34	1.19497
1048.71	4.94317
1052.09	2.91917
1055.46	1.83487
1058.84	1.32185
1062.21	1.89536
1065.59	0.242065
1068.96	0.46241
1072.34	2.25095
1075.71	3.30251
1079.09	1.44773
1082.46	1.33603
1085.84	2.48133
1089.21	2.09501
1092.59	2.1541
1095.96	2.50792
1099.34	0.357498
1102.71	0.337357
1106.09	3.34788
1109.46	1.73377
1112.84	1.11731
1116.21	3.82899
1119.58	3.08721
1122.96	1.28928
1126.33	3.48743
1129.71	1.56064
1133.08	0.671478
1136.46	0.600334
1139.83	3.26199
1143.21	4.58498
1146.58	3.60229
1149.96	0.624588
1153.33	0.645142
1156.71	1.85945
1160.08	2.25258
1163.46	2.33769
1166.83	0.065475
1170.21	0.028992
1173.58	2.83565
1176.96	2.90322
1180.33	1.9805
1183.71	2.67678
1187.08	4.10592
1190.46	5.09433
1193.83	3.422
1197.2	3.88258
1200.58	0.392578
1203.95	1.69739
1207.33	1.98816
1210.7	0.823929
1214.08	3.11916
1217.45	2.20486
1220.83	0.790207
1224.2	2.41018
1227.58	2.08535
1230.95	0.521042
1234.33	2.36303
1237.7	1.06329
1241.08	1.29649
1244.45	0.978577
1247.83	0.750687
1251.2	2.47605
1254.58	1.63662
1257.95	1.56261
1261.33	0.797455
1264.7	2.57195
1268.08	1.3715
1271.45	3.26437
1274.83	3.90305
1278.2	0.459557
1281.58	3.35294
1284.95	1.03524
1288.33	2.02122
1291.7	1.16522
1295.08	1.86761
1298.45	0.801514
1301.83	0
