Measurement: Raman, 532 nm, unoriented, Raman Data Processed
Mineral: Wakefieldite-(Ce)
Rruff sample: R060176
Ideal chemistry: CeVO_4_
Locality: North Keremeous, British Columbia, Canada
Source: Ty Balacko
Description: Blue-gray to rust-brown colored prismatic crystals
Measured chemistry: (Ce_0.49_La_0.40_Nd_0.11_)_Î£=1_V_1.00_O_4_; trace amounts of Si; no Pb detected
Raman shift (cm-1)	intensity
134.136	0
137.511	3.43827
140.886	3.71529
144.261	4.62352
147.636	5.84498
151.011	10.0743
154.385	8.78378
157.76	6.02841
161.135	4.16353
164.51	3.0779
167.885	1.67976
171.259	1.20324
174.634	0.995369
178.009	0.065453
181.384	0.219257
184.759	0.608486
188.133	0.098267
191.508	0.855106
194.883	0.14006
198.258	2.15021
201.633	3.85494
205.008	6.53732
208.382	9.17923
211.757	12.412
215.132	15.2431
218.507	17.9363
221.882	22.6776
225.256	26.7543
228.631	27.5568
232.006	25.4627
235.381	20.3481
238.756	12.7989
242.131	9.24856
245.505	9.32991
248.88	8.51038
252.255	8.70955
255.63	9.24725
259.005	13.5347
262.38	14.2305
265.754	8.17911
269.129	6.27917
272.504	5.32426
275.879	4.5942
279.254	4.20439
282.628	3.0641
286.003	2.98915
289.378	1.33102
292.753	1.45242
296.128	0.747276
299.503	0.202637
302.877	0.387039
306.252	0.453297
309.627	0.067188
313.002	0.30946
316.377	0.16452
319.752	0.260086
323.126	0.375076
326.501	0.546127
329.876	0.342751
333.251	1.57207
336.626	2.77114
340	5.24156
343.375	7.70214
346.75	10.1185
350.125	12.7839
353.5	19.0008
356.875	27.3491
360.249	36.9233
363.624	47.1844
366.999	58.9012
370.374	70.3068
373.749	77.031
377.123	78.7114
380.498	69.4049
383.873	56.507
387.248	43.3929
390.623	31.4022
393.998	24.1173
397.372	18.8362
400.747	17.3386
404.122	11.8961
407.497	9.79296
410.872	7.35812
414.247	6.1134
417.621	4.95206
420.996	4.68174
424.371	2.64229
427.746	1.89139
431.121	1.0093
434.495	0.626827
437.87	0.329826
441.245	0.356216
444.62	1.44944
447.995	2.53799
451.37	5.10825
454.744	8.26089
458.119	9.70945
461.494	18.1051
464.869	24.9976
468.244	19.6723
471.618	7.66547
474.993	4.04757
478.368	2.89041
481.743	2.02922
485.118	2.02089
488.493	1.65367
491.867	0.779495
495.242	0.497068
498.617	0.442532
501.992	1.44708
505.367	0.200241
508.741	0.081427
512.116	0.181625
515.491	0.353897
518.866	0.56657
522.241	0.143711
525.616	0.393377
528.99	0.27844
532.365	0.410549
535.74	0.895233
539.115	1.09555
542.49	0.503714
545.865	1.43592
549.239	1.77917
552.614	1.32509
555.989	2.01113
559.364	1.62892
562.739	1.96425
566.114	2.26919
569.488	1.82039
572.863	1.49173
576.238	2.27471
579.613	1.32914
582.987	1.76535
586.362	1.8456
589.737	1.30598
593.112	0.264875
596.487	0.918737
599.862	0.506216
603.236	0.780989
606.611	1.23685
609.986	0.859882
613.361	0.235455
616.736	0.90629
620.111	0.175442
623.485	0.211855
626.86	0.659601
630.235	0.437593
633.61	1.12111
636.985	1.34122
640.36	0.90221
643.734	0.094887
647.109	1.97624
650.484	0.950253
653.859	0.695503
657.234	0.474463
660.609	2.04323
663.983	1.44395
667.358	0.570621
670.733	1.02365
674.108	1.77747
677.482	0.735859
680.857	1.26196
684.232	1.56334
687.607	2.25933
690.982	1.72952
694.357	1.92149
697.731	2.51988
701.106	1.50967
704.481	2.87179
707.856	1.94957
711.231	0.674234
714.606	0.440931
717.98	1.96496
721.355	0.514305
724.73	0.730385
728.105	0.221342
731.48	0.471342
734.855	0.305555
738.229	1.35882
741.604	0.16576
744.979	0.091272
748.354	1.33317
751.729	0.309832
755.104	1.78724
758.478	1.844
761.853	3.50001
765.228	6.0518
768.603	10.0326
771.977	20.1665
775.352	32.4382
778.727	50.6183
782.102	83.3889
785.477	108.273
788.852	67.2587
792.226	57.2021
795.601	72.8978
798.976	75.1768
802.351	33.7526
805.726	13.1748
809.101	5.98454
812.475	3.53881
815.85	1.62777
819.225	0.233253
822.6	0.054073
825.975	0.020573
829.35	0.485294
832.724	0.358681
836.099	4.0127
839.474	8.84531
842.849	15.884
846.224	30.6576
849.598	61.4486
852.973	92.7815
856.348	134.223
859.723	209.409
863.098	207.088
866.473	57.5861
869.847	20.2727
873.222	11.4677
876.597	7.16624
879.972	5.16523
883.347	4.81367
886.721	4.58552
890.096	3.95604
893.471	3.9037
896.846	4.4164
900.221	3.64902
903.596	3.59708
906.97	4.48001
910.345	3.73537
913.72	3.75447
917.095	2.33372
920.47	1.80712
923.845	1.92634
927.219	1.45422
930.594	0.614662
933.969	0.22913
937.344	0.490528
940.719	0.285969
944.093	0.070305
947.468	0.533775
950.843	0.600636
954.218	0.27313
957.593	0.021477
960.968	0.35902
964.342	0.632652
967.717	0.883162
971.092	0.698887
974.467	0.884243
977.842	0.033253
981.216	1.9229
984.591	1.79239
987.966	3.07459
991.341	0.999691
994.716	2.2052
998.091	2.47195
1001.47	2.02828
1004.84	1.56997
1008.22	1.25738
1011.59	2.35774
1014.97	1.89761
1018.34	2.48822
1021.71	1.74035
1025.09	1.21138
1028.46	0.46483
1031.84	1.43185
1035.21	2.42309
1038.59	0.914385
1041.96	0.712543
1045.34	0.536932
1048.71	1.33103
1052.09	1.01392
1055.46	0.30221
1058.84	0.921118
1062.21	0.028746
1065.59	0.707933
1068.96	0.398785
1072.34	0.612612
1075.71	0.55228
1079.09	1.26662
1082.46	0.677362
1085.84	1.26351
1089.21	0.869791
1092.59	1.63924
1095.96	2.1879
1099.34	0.8507
1102.71	1.99282
1106.09	1.30752
1109.46	0.89076
1112.83	0.854776
1116.21	1.55547
1119.58	1.38781
1122.96	1.06214
1126.33	0.345129
1129.71	0.260035
1133.08	0.712255
1136.46	0.641525
1139.83	0.237604
1143.21	0.839777
1146.58	1.21753
1149.96	0.417485
1153.33	0.839039
1156.71	0.116472
1160.08	0.943861
1163.46	0.737411
1166.83	1.31522
1170.21	0.811436
1173.58	0.804907
1176.96	0.940112
1180.33	0.67875
1183.71	1.00427
1187.08	1.04705
1190.45	0.39333
1193.83	1.63827
1197.2	0.32323
1200.58	0.794676
1203.95	1.32224
1207.33	0.358152
1210.7	0.10276
1214.08	1.0496
1217.45	0.268511
1220.83	1.64348
1224.2	0.094081
1227.58	1.23451
1230.95	2.18111
1234.33	1.65084
1237.7	1.02309
1241.08	0.699966
1244.45	1.99962
1247.83	1.06047
1251.2	1.96598
1254.58	1.82546
1257.95	2.17836
1261.33	1.46905
1264.7	1.85673
1268.08	2.37174
1271.45	0.90213
1274.83	1.31305
1278.2	0.347502
1281.58	1.46948
1284.95	0.34436
1288.33	0.731764
1291.7	0.966145
1295.08	1.07487
1298.45	0.287823
1301.82	0.582531
