Measurement: Raman, 780 nm, unoriented, Raman Data Processed
Mineral: Wakefieldite-(Ce)
Rruff sample: R060542
Ideal chemistry: Ce^3+^V^5+^O_4_
Locality: Yellow Lake, British Columbia, Canada
Source: Michael Scott
Description: Black rectangular prisms
Measured chemistry: (Ce_0.60_La_0.26_Nd_0.12_REE^5+^_0.02_)_Σ=1_(V_0.96_Si_0.04_)_Σ=1_O_4_; no Pb detected; REE^5+^ assumed by charge balance
Raman shift (cm-1)	intensity
93.7832	0
97.158	0.484985
100.533	20.7967
103.908	86.4021
107.282	136.049
110.657	181.702
114.032	251.639
117.407	341.467
120.782	456.169
124.157	459.219
127.531	157.062
130.906	61.6373
134.281	39.8984
137.656	36.8734
141.031	42.38
144.405	49.0712
147.78	51.8498
151.155	39.6834
154.53	22.9616
157.905	9.39452
161.28	2.23283
164.654	0.09726
168.029	1.61566
171.404	3.60278
174.779	2.64088
178.154	3.79088
181.529	1.66917
184.903	0.367432
188.278	3.08821
191.653	7.4357
195.028	13.6495
198.403	25.8588
201.777	40.9002
205.152	64.6612
208.527	104.433
211.902	157.535
215.277	219.046
218.651	282.963
222.026	350.435
225.401	403.557
228.776	429.737
232.151	400.493
235.526	336.58
238.9	264.301
242.275	224.415
245.65	205.469
249.025	184.003
252.4	186.539
255.774	199.434
259.149	236.332
262.524	255.067
265.899	99.6158
269.274	51.1146
272.649	40.8776
276.023	36.1113
279.398	39.5095
282.773	38.3639
286.148	36.0979
289.523	30.1121
292.897	28.5037
296.272	22.1202
299.647	20.4279
303.022	21.0604
306.397	19.7618
309.772	17.2462
313.146	15.59
316.521	17.5589
319.896	10.5321
323.271	5.99628
326.646	4.46112
330.021	12.7381
333.395	20.8032
336.77	26.7695
340.145	19.0605
343.52	5.55756
346.895	21.1703
350.269	71.1069
353.644	136.206
357.019	226.759
360.394	338.346
363.769	448.501
367.144	556.365
370.518	651.746
373.893	709.221
377.268	707.744
380.643	649.501
384.018	570.716
387.392	497.996
390.767	456.722
394.142	443.002
397.517	464.844
400.892	513.569
404.267	575.884
407.641	627.174
411.016	682.763
414.391	709.87
417.766	713.651
421.141	681.061
424.515	631.262
427.89	543.946
431.265	459.268
434.64	377.187
438.015	301.199
441.389	237.939
444.764	187.03
448.139	171.375
451.514	205.269
454.889	255.975
458.264	310.402
461.639	413.079
465.013	540.245
468.388	534.187
471.763	322.67
475.138	211.275
478.512	183.968
481.887	181.956
485.262	174.489
488.637	155.805
492.012	125.592
495.387	86.9265
498.761	52.5336
502.136	24.0149
505.511	4.48022
508.886	7.02393
512.261	10.7334
515.636	8.55438
519.01	0.643555
522.385	2.08136
525.76	2.09216
529.135	3.63354
532.51	4.15881
535.885	8.27679
539.259	14.1509
542.634	12.5062
546.009	8.95392
549.384	3.18549
552.759	15.517
556.133	35.3301
559.508	57.9851
562.883	82.903
566.258	105.228
569.633	128.275
573.007	152.421
576.382	174.714
579.757	187.444
583.132	201.603
586.507	203.417
589.882	203.987
593.256	193.533
596.631	184.714
600.006	163.624
603.381	138.941
606.756	113.119
610.13	85.2794
613.505	59.0081
616.88	42.7799
620.255	30.0227
623.63	22.3226
627.005	16.7122
630.379	17.2994
633.754	17.6796
637.129	21.547
640.504	26.8834
643.879	36.6001
647.254	39.84
650.628	44.2931
654.003	48.0785
657.378	46.3655
660.753	51.1296
664.128	50.8126
667.502	51.8006
670.877	46.0058
674.252	43.8364
677.627	35.6981
681.002	27.3927
684.376	17.5693
687.751	8.17825
691.126	4.57639
694.501	1.11758
697.876	6.35919
701.251	6.12775
704.625	2.28424
708	0.926117
711.375	4.97095
714.75	10.6613
718.125	10.615
721.5	16.0325
724.874	18.9906
728.249	21.3538
731.624	33.5256
734.999	50.213
738.374	63.007
741.748	89.0418
745.123	118.813
748.498	155.898
751.873	202.267
755.248	258.364
758.622	324.763
761.997	405.618
765.372	509.867
768.747	636.865
772.122	814.909
775.497	1049.61
778.871	1253.47
782.246	1531.96
785.621	1844.29
788.996	1701.63
792.371	1156.92
795.745	1005.15
799.12	967.558
802.495	748.971
805.87	424.753
809.245	251.968
812.62	157.631
815.994	97.3597
819.369	62.179
822.744	31.0836
826.119	5.03244
829.494	9.73904
832.869	9.36762
836.243	0.757751
839.618	41.7087
842.993	118.84
846.368	275.317
849.743	635.079
853.117	1240.05
856.492	1746.08
859.867	2507.91
863.242	3179.18
866.617	1979.56
869.991	584.66
873.366	219.868
876.741	108.742
880.116	55.2788
883.491	32.1811
886.866	23.5343
890.24	16.1169
893.615	11.5216
896.99	9.23709
900.365	4.70435
903.74	3.78465
907.115	3.29718
910.489	0.007202
913.864	0.278107
917.239	0.966141
920.614	1.90018
923.989	1.03389
927.364	0.598907
930.738	1.81769
934.113	3.61742
937.488	5.71452
940.863	6.71388
944.237	7.15935
947.612	5.5761
950.987	5.2245
954.362	6.1273
957.737	6.88069
961.112	9.8584
964.486	11.1859
967.861	13.0546
971.236	14.9101
974.611	14.3517
977.986	14.8406
981.361	16.3625
984.735	17.3244
988.11	18.6963
991.485	21.0018
994.86	22.4143
998.235	22.9578
1001.61	23.742
1004.98	23.0483
1008.36	24.258
1011.73	22.9545
1015.11	21.0801
1018.48	21.0799
1021.86	18.7361
1025.23	18.4364
1028.61	13.9509
1031.98	13.5901
1035.36	11.1326
1038.73	9.267
1042.11	7.3411
1045.48	4.86449
1048.86	2.99919
1052.23	2.01596
1055.61	1.17992
1058.98	0.89093
1062.36	1.49585
1065.73	2.92827
1069.11	1.93925
1072.48	3.40088
1075.86	1.5493
1079.23	1.02524
1082.61	1.41875
1085.98	4.40999
1089.36	7.49638
1092.73	11.6374
1096.1	14.9305
1099.48	17.5185
1102.85	20.7553
1106.23	21.7328
1109.6	24.039
1112.98	25.5165
1116.35	22.7711
1119.73	23.7765
1123.1	26.5369
1126.48	27.2885
1129.85	29.3347
1133.23	28.9675
1136.6	32.9941
1139.98	33.6575
1143.35	37.7487
1146.73	40.1569
1150.1	42.205
1153.48	44.1365
1156.85	50.0988
1160.23	56.7614
1163.6	68.3272
1166.98	81.0263
1170.35	97.0099
1173.72	112.772
1177.1	133.511
1180.47	156.859
1183.85	175.098
1187.22	192.487
1190.6	202.576
1193.97	209.338
1197.35	211.263
1200.72	212.165
1204.1	198.792
1207.47	187.518
1210.85	161.03
1214.22	136.579
1217.6	108.203
1220.97	77.2222
1224.35	47.9691
1227.72	21.0856
1231.1	1.82001
1234.47	4.10046
1237.85	4.62793
1241.22	3.15454
1244.6	5.32196
1247.97	21.0076
1251.35	42.6934
1254.72	67.2603
1258.1	91.3216
1261.47	103.408
1264.85	95.9219
1268.22	99.324
1271.6	89.5217
1274.97	69.0536
1278.35	44.4972
1281.72	23.5813
1285.09	5.47473
