Measurement: Raman, 780 nm, unoriented, Raman Data Processed
Mineral: Wakefieldite-(Ce)
Rruff sample: R060176
Ideal chemistry: CeVO_4_
Locality: North Keremeous, British Columbia, Canada
Source: Ty Balacko
Description: Blue-gray to rust-brown colored prismatic crystals
Measured chemistry: (Ce_0.49_La_0.40_Nd_0.11_)_Î£=1_V_1.00_O_4_; trace amounts of Si; no Pb detected
Raman shift (cm-1)	intensity
136.862	0
139.755	2.52685
142.648	5.6637
145.54	11.0269
148.433	14.1805
151.326	11.073
154.218	6.94038
157.111	2.87103
160.004	3.41935
162.897	4.18056
165.789	4.95109
168.682	4.69302
171.575	3.29515
174.467	1.50528
177.36	1.0819
180.253	0.036537
183.145	0.867477
186.038	0.677361
188.931	0.94529
191.823	0.540756
194.716	0.333191
197.609	3.45614
200.502	8.28613
203.394	13.628
206.287	23.4378
209.18	35.499
212.072	50.1748
214.965	68.5512
217.858	89.7228
220.75	112.973
223.643	140.218
226.536	160.184
229.429	163.572
232.321	147.022
235.214	120.486
238.107	92.2082
240.999	78.2645
243.892	76.5325
246.785	73.9819
249.677	68.4614
252.57	69.7034
255.463	77.3902
258.356	101.829
261.248	141.63
264.141	83.2486
267.034	34.6996
269.926	24.6034
272.819	20.7851
275.712	20.8725
278.604	21.0616
281.497	22.4885
284.39	21.2412
287.283	18.8607
290.175	15.9222
293.068	15.25
295.961	13.7793
298.853	12.7675
301.746	11.502
304.639	11.9545
307.531	11.5139
310.424	10.1659
313.317	10.7542
316.209	8.97264
319.102	5.1908
321.995	3.52998
324.888	0.924896
327.78	3.0759
330.673	5.23389
333.566	10.9627
336.458	10.235
339.351	7.33389
342.244	5.93396
345.137	4.79394
348.029	17.6125
350.922	38.1587
353.815	68.5377
356.707	99.7085
359.6	142.659
362.493	187.989
365.385	232.961
368.278	280.203
371.171	322.489
374.063	354.458
376.956	375.406
379.849	371.46
382.741	353.628
385.634	336.093
388.527	327.123
391.42	330.325
394.312	342.703
397.205	368.456
400.098	398.358
402.99	427.037
405.883	459.755
408.776	486.205
411.668	495.894
414.561	500.75
417.454	489.919
420.347	467.058
423.239	434.225
426.132	385.579
429.025	337.514
431.917	292.326
434.81	239.001
437.703	199.294
440.596	160.923
443.488	128.641
446.381	101.565
449.274	91.9318
452.166	78.6623
455.059	70.6315
457.952	68.4633
460.844	74.1626
463.737	92.6233
466.63	100.655
469.522	76.5377
472.415	48.8054
475.308	42.6105
478.201	40.7606
481.093	36.96
483.986	36.2694
486.879	29.2202
489.771	22.124
492.664	10.3193
495.557	0.165283
498.45	4.87317
501.342	12.632
504.235	10.9393
507.128	8.55646
510.02	2.85382
512.913	6.8642
515.806	13.7906
518.698	19.6301
521.591	21.5756
524.484	22.7001
527.376	17.7873
530.269	12.1931
533.162	5.58191
536.055	3.58966
538.947	0.829468
541.84	2.04346
544.733	4.99664
547.625	14.2818
550.518	20.9689
553.411	33.9821
556.303	49.6007
559.196	59.5007
562.089	72.6488
564.981	87.1265
567.874	103.691
570.767	116.199
573.66	126.38
576.552	136.271
579.445	145.233
582.338	148.276
585.23	150.867
588.123	147.93
591.016	148.01
593.909	139.295
596.801	128.687
599.694	114.523
602.587	95.0055
605.479	77.7257
608.372	59.8408
611.265	44.491
614.157	27.0461
617.05	17.4274
619.943	8.89114
622.836	2.22855
625.728	0.3992
628.621	1.4932
631.514	0.557098
634.406	2.88562
637.299	0.350769
640.192	1.92117
643.084	6.80713
645.977	7.09119
648.87	9.34732
651.763	10.8261
654.655	11.5246
657.548	14.1304
660.441	15.8053
663.333	15.5577
666.226	17.9171
669.119	18.5933
672.011	15.8495
674.904	17.2416
677.797	15.8817
680.689	12.5853
683.582	11.1242
686.475	5.9697
689.368	2.53104
692.26	0.043945
695.153	2.828
698.046	3.60931
700.938	3.4187
703.831	1.90524
706.724	0.72876
709.616	3.22186
712.509	10.4604
715.402	15.8769
718.294	22.3882
721.187	28.9649
724.08	38.5935
726.973	47.5137
729.865	60.3127
732.758	74.4188
735.651	87.5007
738.543	105.396
741.436	125.547
744.329	149.184
747.221	177.431
750.114	208.901
753.007	245.323
755.9	283.278
758.792	330.345
761.685	379.923
764.578	433.133
767.47	487.798
770.363	541.393
773.256	592.257
776.149	624.301
779.041	655.774
781.934	694.728
784.827	727.409
787.719	654.414
790.612	547.814
793.505	526.993
796.397	551.97
799.29	510.1
802.183	335.949
805.075	209.507
807.968	143.221
810.861	100.599
813.754	69.5361
816.646	47.5112
819.539	29.7528
822.432	16.5823
825.324	5.58339
828.217	2.17049
831.11	6.87074
834.002	5.58601
836.895	1.05185
839.788	12.6031
842.681	38.7168
845.573	95.4331
848.466	221.655
851.359	366.285
854.251	507.345
857.144	748.09
860.037	1151.76
862.929	1324.63
865.822	534.902
868.715	151.529
871.607	62.1196
874.5	29.6597
877.393	12.0949
880.286	4.72775
883.178	3.46225
886.071	2.50227
888.964	2.93695
891.856	1.44873
894.749	0.623367
897.642	3.49283
900.534	0.061707
903.427	0.215958
906.32	0.379463
909.213	0.026367
912.105	0.248291
914.998	0.315224
917.891	0.127617
920.783	0.141342
923.676	0.264824
926.569	0.156548
929.462	1.55856
932.354	1.56203
935.247	2.32768
938.14	2.51205
941.032	2.52328
943.925	3.41805
946.818	4.57493
949.71	4.64951
952.603	5.15475
955.496	5.79187
958.388	6.76138
961.281	7.77281
964.174	7.23661
967.067	7.18952
969.959	7.97661
972.852	8.29498
975.745	9.22449
978.637	10.7738
981.53	11.0947
984.423	11.2633
987.315	11.8671
990.208	12.2721
993.101	12.5666
995.994	12.8296
998.886	12.6774
1001.78	14.3347
1004.67	13.4472
1007.56	13.2505
1010.46	13.1392
1013.35	12.6215
1016.24	12.5483
1019.13	10.6021
1022.03	9.38765
1024.92	9.46209
1027.81	8.36436
1030.71	5.85458
1033.6	5.80055
1036.49	4.38715
1039.38	3.52934
1042.28	2.55076
1045.17	5.31197
1048.06	1.67819
1050.95	0.226669
1053.85	3.71541
1056.74	1.63583
1059.63	0.915291
1062.53	0.939079
1065.42	0.638626
1068.31	0.668861
1071.2	1.11281
1074.1	1.37533
1076.99	0.186714
1079.88	1.00388
1082.77	0.862022
1085.67	2.66582
1088.56	4.86135
1091.45	5.55186
1094.35	7.14804
1097.24	9.30567
1100.13	10.3394
1103.02	11.082
1105.92	14.2029
1108.81	14.2901
1111.7	12.855
1114.59	13.8255
1117.49	13.6242
1120.38	13.6117
1123.27	14.7693
1126.16	15.6082
1129.06	14.7507
1131.95	15.4599
1134.84	17.7177
1137.74	17.8554
1140.63	19.4267
1143.52	20.5151
1146.41	21.2301
1149.31	22.5444
1152.2	23.0124
1155.09	24.6538
1157.98	27.0565
1160.88	29.6631
1163.77	36.6459
1166.66	40.7967
1169.56	45.6856
1172.45	52.9824
1175.34	61.0466
1178.23	70.4826
1181.13	80.4223
1184.02	90.2399
1186.91	96.3654
1189.8	104.355
1192.7	109.714
1195.59	109.227
1198.48	108.606
1201.38	107.593
1204.27	104.053
1207.16	96.0482
1210.05	86.3825
1212.95	74.5314
1215.84	63.2078
1218.73	46.8184
1221.62	32.8319
1224.52	18.4944
1227.41	6.45911
1230.3	2.09854
1233.19	2.44577
1236.09	4.09738
1238.98	2.63504
1241.87	0.956635
1244.77	2.96036
1247.66	11.8022
1250.55	20.3319
1253.44	29.7911
1256.34	42.8164
1259.23	46.4793
1262.12	44.7581
1265.01	43.0759
1267.91	44.5367
1270.8	40.0759
1273.69	33.2742
1276.59	23.3125
1279.48	14.0666
1282.37	3.34009
1285.26	2.5954
