Measurement: Raman, 532 nm, unoriented, Raman Data Processed
Mineral: Wakefieldite-(Ce)
Rruff sample: R060542
Ideal chemistry: CeVO_4_
Locality: Yellow Lake, British Columbia, Canada
Source: Michael Scott
Description: Black rectangular prisms
Measured chemistry: (Ce_0.60_La_0.26_Nd_0.12_REE^5+^_0.02_)_Σ=1_(V_0.96_Si_0.04_)_Σ=1_O_4_; no Pb detected; REE^5+^ assumed by charge balance
Raman shift (cm-1)	intensity
169.251	0
172.144	17.398
175.037	2.739
177.929	41.632
180.822	4.469
183.715	38.416
186.607	68.669
189.5	14.948
192.393	51.309
195.286	53.883
198.178	113.016
201.071	101.029
203.964	181.933
206.857	250.174
209.749	319.865
212.642	402.596
215.535	558.524
218.427	796.994
221.32	1020.18
224.213	1220.82
227.105	1372.57
229.998	1381.06
232.891	1240.64
235.783	1024.02
238.676	902.352
241.569	735.516
244.462	612.135
247.354	655.064
250.247	759.517
253.14	1100.24
256.032	1723.85
258.925	2941.32
261.818	3207.51
264.711	1216.88
267.603	603.229
270.496	429.965
273.389	318.592
276.281	278.755
279.174	248.198
282.067	251.143
284.959	203.845
287.852	140.83
290.745	144.232
293.638	77.121
296.53	42.908
299.423	8.493
302.316	8.891
305.208	21.851
308.101	10.532
310.994	26.679
313.886	41.913
316.779	13.092
319.672	30.243
322.565	6.798
325.457	0.746
328.35	15.838
331.243	22.781
334.135	55.626
337.028	100.363
339.921	182.017
342.813	238.416
345.706	391.511
348.599	592.461
351.491	778.229
354.384	1087.27
357.277	1477.92
360.17	1942.54
363.062	2422.73
365.955	3005.95
368.848	3412.71
371.741	3819.78
374.633	3956.08
377.526	3893.4
380.419	3576.05
383.311	3031.95
386.204	2452.38
389.097	2009.36
391.989	1504.36
394.882	1274.06
397.775	929.577
400.668	758.503
403.56	601.457
406.453	456.355
409.346	371.221
412.238	330.06
415.131	288.845
418.024	229.448
420.916	171.289
423.809	105.172
426.702	133.14
429.595	91.157
432.487	35.566
435.38	40.409
438.273	56.696
441.165	31.229
444.058	10.65
446.951	71.279
449.843	100.756
452.736	147.209
455.629	188.043
458.522	306.71
461.414	544.654
464.307	829.673
467.2	921.891
470.092	656.692
472.985	333.178
475.878	227.664
478.77	184.885
481.663	140.906
484.556	155.142
487.448	180.552
490.341	140.396
493.234	151.555
496.127	107.032
499.019	74.322
501.912	126.433
504.805	84.804
507.698	11.902
510.59	13.707
513.483	23.23
516.375	31.673
519.268	10.403
522.161	11.515
525.054	27.776
527.946	51.324
530.839	8.122
533.732	20.839
536.625	23.928
539.517	39.891
542.41	41.209
545.303	56.395
548.195	71.379
551.088	90.689
553.981	60.611
556.873	86.764
559.766	41.202
562.659	68.359
565.552	132.147
568.444	125.036
571.337	140.254
574.23	128.582
577.122	58.012
580.015	69.842
582.908	73.448
585.8	97.508
588.693	63.708
591.586	88.435
594.479	69.99
597.371	58.092
600.264	16.54
603.157	65.757
606.049	8.336
608.942	67.507
611.835	53.69
614.727	60.766
617.62	61.095
620.513	42.316
623.406	60.147
626.298	73.126
629.191	67.689
632.084	78.623
634.976	28.329
637.869	68.135
640.762	51.795
643.654	1.194
646.547	43.42
649.44	59.412
652.333	40.753
655.225	62.553
658.118	16.671
661.011	52.197
663.903	50.089
666.796	0.931
669.689	31.822
672.581	50.243
675.474	35.32
678.367	41.298
681.26	52.014
684.152	72.831
687.045	95.288
689.938	94.702
692.83	155.532
695.723	178.386
698.616	158.685
701.508	181.991
704.401	217.347
707.294	233.538
710.187	245.488
713.079	216.762
715.972	185.219
718.865	196.615
721.757	116.135
724.65	76.553
727.543	54.476
730.435	12.014
733.328	13.482
736.221	12.788
739.114	3.79
742.006	58.969
744.899	6.102
747.792	7.954
750.684	34.057
753.577	34.167
756.47	12.19
759.362	113.696
762.255	82.287
765.148	198.075
768.041	273.907
770.933	403.774
773.826	603.827
776.719	960.748
779.612	1452.78
782.504	2326.89
785.397	3109.94
788.29	2722.8
791.182	2317.1
794.075	2731.73
796.968	3535.74
799.86	3598.11
802.753	2449.96
805.646	1421.93
808.539	802.328
811.431	450.516
814.324	276.882
817.217	138.105
820.109	67.293
823.002	14.097
825.895	41.31
828.787	51.569
831.68	5.157
834.573	81.084
837.466	222.085
840.358	344.833
843.251	620.032
846.144	1149.14
849.036	1987.73
851.929	3284.5
854.822	4935.48
857.714	7544.1
860.607	11803.5
863.5	12602.7
866.393	6573.42
869.285	2959.02
872.178	1609.49
875.071	1049.32
877.963	665.698
880.856	481.244
883.749	347.846
886.641	314.773
889.534	318.243
892.427	240.113
895.32	261.242
898.212	299.076
901.105	218.748
903.998	256.117
906.89	217.186
909.783	211.137
912.676	259.195
915.568	266.97
918.461	222.962
921.354	194.601
924.247	168.026
927.139	150.262
930.032	102.704
932.925	88.999
935.817	46.322
938.71	53.418
941.603	77.084
944.495	36.92
947.388	78.119
950.281	5.851
953.174	27.475
956.066	36.905
958.959	17.113
961.852	2.335
964.744	10.376
967.637	11.767
970.53	22.022
973.422	13.042
976.315	42.856
979.208	50.769
982.101	30.204
984.993	15.175
987.886	70.511
990.779	86.031
993.671	74.635
996.564	113.875
999.457	113.647
1002.35	97.133
1005.24	118.107
1008.13	75.42
1011.03	63.667
1013.92	122.585
1016.81	116.075
1019.71	170.018
1022.6	79.074
1025.49	138.097
1028.38	135.993
1031.28	101.538
1034.17	52.691
1037.06	55.305
1039.95	62.621
1042.85	49.132
1045.74	28.429
1048.63	0.042
1051.53	39.247
1054.42	55.36
1057.31	52.41
1060.2	69.389
1063.1	96.769
1065.99	43.114
1068.88	53.38
1071.77	61.549
1074.67	42.986
1077.56	26.932
1080.45	32.8
1083.35	72.71
1086.24	41.677
1089.13	45.727
1092.02	33.4
1094.92	80.718
1097.81	46.176
1100.7	81.514
1103.59	105.951
1106.49	37.51
1109.38	10.811
1112.27	79.559
1115.16	68.295
1118.06	54.806
1120.95	40.562
1123.84	21.042
1126.74	69.212
1129.63	7.621
1132.52	45.693
1135.41	44.105
1138.31	44.153
1141.2	54.895
1144.09	7.479
1146.98	35.652
1149.88	22.885
1152.77	13.642
1155.66	26.38
1158.56	44.274
1161.45	6.068
1164.34	21.108
1167.23	8.192
1170.13	22.872
1173.02	29.261
1175.91	25.439
1178.8	59.12
1181.7	13.519
1184.59	76.61
1187.48	25.739
1190.38	34.922
1193.27	47.123
1196.16	19.477
1199.05	1.554
1201.95	9.842
1204.84	51.43
1207.73	46.185
1210.62	7.449
1213.52	46.592
1216.41	21.052
1219.3	1.831
1222.19	32.48
1225.09	58.868
1227.98	35.345
1230.87	48.385
1233.77	33.137
1236.66	47.967
1239.55	70.983
1242.44	35.062
1245.34	89.382
1248.23	60.349
1251.12	46.756
1254.02	46.399
1256.91	102.235
1259.8	77.591
1262.69	60.663
1265.59	5.091
1268.48	5.597
1271.37	49.049
1274.26	17.922
