Measurement: Raman, 532 nm, unoriented, Raman Data Processed
Mineral: Walentaite
Rruff sample: R140963
Ideal chemistry: H_2_Ca_2_Fe^3+^_6_(As^5+^O_4_)_5_(PO_4_)_3_14H_2_O
Locality: White Elephant mine, Cicero Peak, Pringle, Custer District, Custer County, South Dakota, USA
Source: Bob Jenkins
Raman shift (cm-1)	intensity
111.961	0
115.335	11.3372
118.71	10.5516
122.085	6.5188
125.46	1.10529
128.835	1.58252
132.209	1.34198
135.584	0.704285
138.959	12.4896
142.334	17.3506
145.709	23.1267
149.084	31.9387
152.458	39.9542
155.833	47.0107
159.208	48.9871
162.583	52.5501
165.958	51.4105
169.333	48.5105
172.707	41.4778
176.082	37.149
179.457	34.5478
182.832	43.447
186.207	46.547
189.581	53.2714
192.956	63.3339
196.331	69.0037
199.706	72.836
203.081	74.3979
206.455	73.7773
209.83	73.4869
213.205	73.3676
216.58	79.196
219.955	84.4008
223.329	87.6273
226.704	93.3777
230.079	99.7456
233.454	108.546
236.829	118.621
240.204	131.053
243.578	142.92
246.953	149.575
250.328	156.25
253.703	162.391
257.078	167.663
260.452	173.424
263.827	179.46
267.202	176.803
270.577	173.932
273.952	174.806
277.327	170.088
280.701	152.61
284.076	124.932
287.451	93.525
290.826	62.9097
294.201	39.7732
297.575	20.3433
300.95	6.64746
304.325	2.59992
307.7	6.4223
311.075	7.56781
314.45	7.29138
317.824	2.82709
321.199	0.857117
324.574	8.6228
327.949	18.8898
331.324	24.4402
334.699	33.3527
338.073	39.7833
341.448	45.4547
344.823	51.0451
348.198	57.3053
351.573	62.4332
354.947	71.8066
358.322	80.4561
361.697	80.9539
365.072	80.3724
368.447	72.8354
371.822	61.2564
375.196	50.3641
378.571	39.3836
381.946	31.6196
385.321	22.9727
388.696	14.3148
392.07	6.7428
395.445	2.36121
398.82	0.869202
402.195	2.35883
405.57	3.63885
408.945	5.78503
412.319	13.0879
415.694	23.4114
419.069	32.9473
422.444	41.9119
425.818	45.4175
429.193	54.7935
432.568	55.9515
435.943	63.8512
439.318	71.6254
442.693	81.3942
446.067	84.2662
449.442	93.6454
452.817	96.0565
456.192	96.0741
459.567	95.392
462.942	86.2598
466.316	73.5255
469.691	56.7737
473.066	39.3126
476.441	23.5937
479.816	12.7688
483.19	4.42346
486.565	0.720276
489.94	3.13977
493.315	4.44562
496.69	5.55548
500.065	3.50708
503.439	1.39276
506.814	2.01715
510.189	6.40533
513.564	12.4272
516.939	13.4308
520.313	17.5465
523.688	17.2009
527.063	17.2138
530.438	17.4211
533.813	18.3006
537.188	17.4875
540.562	23.4623
543.937	28.5471
547.312	36.6539
550.687	44.8615
554.062	52.6683
557.436	61.9124
560.811	78.7289
564.186	99.8295
567.561	119.143
570.936	143.34
574.311	163.799
577.685	183.212
581.06	188.606
584.435	188.249
587.81	185.129
591.185	176.48
594.559	162.562
597.934	146.899
601.309	136.935
604.684	124.865
608.059	117.026
611.433	108.662
614.808	100.719
618.183	95.3885
621.558	86.1258
624.933	78.7257
628.308	70.5395
631.682	59.4734
635.057	52.7065
638.432	37.8214
641.807	29.1769
645.182	21.5082
648.557	14.584
651.931	9.67548
655.306	5.78021
658.681	0.392578
662.056	1.75488
665.431	0.73584
668.805	2.92767
672.18	1.34973
675.555	1.03119
678.93	1.08496
682.305	1.20752
685.679	4.67413
689.054	0.775879
692.429	0.008484
695.804	0.067017
699.179	1.0874
702.553	3.58276
705.928	6.44189
709.303	7.69556
712.678	13.4285
716.053	17.208
719.428	18.3021
722.802	22.7988
726.177	29.0176
729.552	30.0733
732.927	32.909
736.302	32.3047
739.677	34.3193
743.051	35.4389
746.426	34.5922
749.801	31.2635
753.176	31.6595
756.551	30.3184
759.925	28.4586
763.3	27.4365
766.675	24.6893
770.05	24.6805
773.425	20.8196
776.799	15.1202
780.174	12.6859
783.549	8.6391
786.924	4.38513
790.299	1.15826
793.674	2.07379
797.048	0.246338
800.423	0.030029
803.798	4.1499
807.173	8.94519
810.548	10.0598
813.923	12.4828
817.297	15.943
820.672	20.4013
824.047	17.783
827.422	20.0088
830.797	19.6679
834.171	20.009
837.546	23.6774
840.921	23.7661
844.296	24.2379
847.671	24.3842
851.045	26.1676
854.42	27.3074
857.795	27.944
861.17	27.2191
864.545	25.8046
867.92	25.0198
871.294	25.1886
874.669	25.9268
878.044	23.5064
881.419	22.1123
884.794	17.3438
888.168	17.5203
891.543	15.853
894.918	13.1096
898.293	11.6011
901.668	7.92108
905.043	5.62067
908.417	2.24213
911.792	2.52344
915.167	0.59906
918.542	1.36267
921.917	0.200317
925.291	3.80579
928.666	0.473511
932.041	1.33221
935.416	2.13446
938.791	1.51495
942.165	1.95233
945.54	4.71668
948.915	3.49341
952.29	10.4845
955.665	14.0435
959.04	14.9064
962.414	21.2181
965.789	21.9551
969.164	21.2458
972.539	17.0778
975.914	16.1621
979.288	20.5881
982.663	22.0706
986.038	21.7246
989.413	23.1396
992.788	21.0804
996.163	26.4756
999.537	27.3848
1002.91	29.9402
1006.29	33.1652
1009.66	40.0298
1013.04	48.3402
1016.41	49.3157
1019.79	54.7565
1023.16	54.796
1026.54	59.4664
1029.91	68.6204
1033.29	71.4988
1036.66	77.681
1040.04	79.6326
1043.41	81.3784
1046.79	80.1376
1050.16	81.5586
1053.53	77.45
1056.91	72.8618
1060.28	64.7909
1063.66	60.1949
1067.03	53.3314
1070.41	48.2426
1073.78	37.9777
1077.16	35.3148
1080.53	27.5665
1083.91	23.4766
1087.28	15.962
1090.66	9.8324
1094.03	7.80908
1097.41	2.9917
1100.78	1.26172
1104.16	0.172791
1107.53	2.44238
1110.91	1.18311
1114.28	1.96606
1117.66	1.25354
1121.03	2.02905
1124.41	0.519836
1127.78	0.235413
1131.15	2.57532
1134.53	0.489929
1137.9	4.54096
1141.28	5.62463
1144.65	4.01953
1148.03	2.19006
1151.4	1.93237
1154.78	3.67004
1158.15	4.18707
1161.53	2.01257
1164.9	1.49353
1168.28	1.75604
1171.65	0.156189
1175.03	2.64423
1178.4	0.742065
1181.78	0.273438
1185.15	3.16522
1188.53	2.73554
1191.9	2.56354
1195.28	2.39349
1198.65	4.80335
1202.03	2.41516
1205.4	4.15973
1208.78	6.99676
1212.15	5.98456
1215.53	7.0047
1218.9	6.54169
1222.28	6.78436
1225.65	6.85736
1229.03	2.96082
1232.4	4.65039
1235.78	5.94171
1239.15	7.11456
1242.52	5.48718
1245.9	4.92871
1249.27	5.13269
1252.65	8.2287
1256.02	6.19067
1259.4	6.30579
1262.77	3.65729
1266.15	2.52417
1269.52	3.98248
1272.9	5.06818
1276.27	4.25684
1279.65	1.89484
1283.02	2.25134
1286.4	1.64801
1289.77	3.57788
1293.15	1.3241
1296.52	0.480103
1299.9	1.44006
