Measurement: Raman, 780 nm, unoriented, Raman Data Processed
Mineral: Walentaite
Rruff sample: R140963
Ideal chemistry: H_2_Ca_2_Fe^3+^_6_(As^5+^O_4_)_5_(PO_4_)_3_14H_2_O
Locality: White Elephant mine, Cicero Peak, Pringle, Custer District, Custer County, South Dakota, USA
Source: Bob Jenkins
Raman shift (cm-1)	intensity
106.988	0
110.362	1.93308
113.737	4.60519
117.112	6.69708
120.487	4.80154
123.862	3.58206
127.237	0.813812
130.611	0.887665
133.986	2.53809
137.361	0.319244
140.736	4.14307
144.111	5.67526
147.485	5.47318
150.86	7.034
154.235	10.6472
157.61	8.61966
160.985	10.7344
164.359	10.8694
167.734	9.96838
171.109	11.0345
174.484	8.28378
177.859	8.33844
181.234	7.69717
184.608	13.8193
187.983	15.7698
191.358	18.4896
194.733	23.4429
198.108	21.9709
201.482	24.2486
204.857	23.3405
208.232	21.4342
211.607	18.6786
214.982	19.2859
218.357	19.5006
221.731	23.0036
225.106	25.0494
228.481	27.778
231.856	34.6798
235.231	38.703
238.605	44.3644
241.98	51.6913
245.355	56.6865
248.73	64.0729
252.105	64.5185
255.48	69.5031
258.854	71.7276
262.229	70.9975
265.604	71.1651
268.979	71.9716
272.354	68.8788
275.728	65.9567
279.103	61.1397
282.478	48.7504
285.853	37.1221
289.228	24.0414
292.602	15.2991
295.977	9.53125
299.352	4.43219
302.727	1.19217
306.102	1.42154
309.476	3.52234
312.851	2.68494
316.226	1.14368
319.601	0.160248
322.976	3.60565
326.351	6.40485
329.725	9.11203
333.1	11.6562
336.475	14.9679
339.85	16.3541
343.225	19.0142
346.599	19.0092
349.974	20.8726
353.349	23.6515
356.724	26.9131
360.099	27.612
363.474	27.9359
366.848	23.5686
370.223	19.1936
373.598	18.2249
376.973	13.3428
380.348	8.23151
383.722	6.51553
387.097	4.22247
390.472	2.54828
393.847	1.6394
397.222	0.569611
400.596	0.764221
403.971	0.440735
407.346	1.23477
410.721	5.06862
414.096	6.39627
417.471	8.91782
420.845	13.3492
424.22	16.589
427.595	19.399
430.97	22.8736
434.345	22.88
437.719	24.6637
441.094	26.993
444.469	27.7907
447.844	30.1026
451.219	29.0527
454.594	30.161
457.968	29.0486
461.343	28.359
464.718	24.5594
468.093	20.7189
471.468	14.4086
474.842	10.0895
478.217	7.96092
481.592	4.11977
484.967	1.15198
488.342	2.4239
491.716	0.909622
495.091	2.47771
498.466	0.164978
501.841	1.16657
505.216	0.526108
508.591	0.842575
511.965	0.813202
515.34	1.41107
518.715	2.76593
522.09	3.13118
525.465	4.14778
528.84	4.3177
532.214	6.86792
535.589	5.46896
538.964	6.43359
542.339	8.89996
545.713	10.0013
549.088	12.5531
552.463	13.1247
555.838	17.7613
559.213	21.1968
562.588	24.9838
565.962	30.0723
569.337	37.6211
572.712	44.6977
576.087	48.8331
579.462	52.3673
582.837	52.5759
586.211	53.6827
589.586	52.1498
592.961	50.4942
596.336	46.2616
599.711	41.6186
603.085	40.8911
606.46	38.4927
609.835	35.5494
613.21	32.7908
616.585	33.0523
619.96	29.7194
623.334	28.0372
626.709	27.658
630.084	24.9494
633.459	22.3343
636.833	18.6433
640.208	14.0836
643.583	11.3496
646.958	8.29913
650.333	4.50343
653.708	3.24512
657.082	1.33177
660.457	1.899
663.832	0.12323
667.207	1.14758
670.582	0.214294
673.957	0.180786
677.331	0.599548
680.706	0.565094
684.081	0.863129
687.456	0.048477
690.831	0.002838
694.205	1.07826
697.58	0.386688
700.955	2.50313
704.33	1.89069
707.705	4.17195
711.079	3.80713
714.454	5.98047
717.829	7.52496
721.204	8.54021
724.579	9.89804
727.953	11.4797
731.328	12.2153
734.703	14.1286
738.078	13.2621
741.453	16.1961
744.828	14.9292
748.202	15.462
751.577	16.6375
754.952	17.1283
758.327	19.2259
761.702	17.7285
765.077	18.6133
768.451	15.4937
771.826	15.6029
775.201	12.6513
778.576	10.4566
781.951	6.74092
785.325	3.96307
788.7	2.80713
792.075	2.11995
795.45	0.208359
798.825	0.302841
802.199	0.855072
805.574	1.03653
808.949	2.43405
812.324	3.37436
815.699	4.15736
819.073	3.57352
822.448	3.62993
825.823	5.12547
829.198	6.14442
832.573	4.47846
835.948	6.50478
839.322	6.64371
842.697	7.12024
846.072	7.37311
849.447	7.95912
852.822	8.26367
856.197	7.92274
859.571	8.22882
862.946	8.91354
866.321	9.40666
869.696	9.17062
873.071	8.46886
876.445	8.24147
879.82	6.95212
883.195	6.6353
886.57	5.18909
889.945	4.77811
893.319	3.85081
896.694	2.26607
900.069	2.73138
903.444	1.74224
906.819	0.102135
910.193	0.178802
913.568	0.66433
916.943	0.289589
920.318	0.319244
923.693	0.482208
927.068	0.402534
930.442	0.029327
933.817	0.773605
937.192	0.646393
940.567	1.1899
943.942	2.51993
947.317	2.38616
950.691	3.73048
954.066	6.44777
957.441	8.33032
960.816	11.6218
964.191	11.1434
967.565	7.81947
970.94	7.63969
974.315	6.22546
977.69	7.09796
981.065	6.11047
984.439	4.90226
987.814	5.99422
991.189	5.47058
994.564	5.59054
997.939	5.26348
1001.31	6.43665
1004.69	4.51189
1008.06	5.27694
1011.44	5.40069
1014.81	6.61496
1018.19	7.46941
1021.56	7.16521
1024.94	7.96517
1028.31	8.27608
1031.69	8.87392
1035.06	10.3942
1038.44	10.5561
1041.81	12.7732
1045.19	12.8477
1048.56	12.6857
1051.94	12.0879
1055.31	12.0242
1058.68	10.9048
1062.06	10.0721
1065.43	8.5098
1068.81	7.39465
1072.18	6.96603
1075.56	6.70077
1078.93	5.74104
1082.31	2.96069
1085.68	4.15889
1089.06	2.02722
1092.43	0.206619
1095.81	1.41703
1099.18	0.130165
1102.56	0.375427
1105.93	0.188499
1109.31	0.40638
1112.68	0.05954
1116.06	0.387268
1119.43	0.158615
1122.81	1.16909
1126.18	0.397102
1129.56	0.907829
1132.93	0.265091
1136.31	1.29504
1139.68	0.305801
1143.06	1.81303
1146.43	1.31744
1149.81	2.20154
1153.18	0.018402
1156.56	1.02866
1159.93	1.35759
1163.31	1.01604
1166.68	0.6633
1170.05	0.543205
1173.43	1.18727
1176.8	0.411835
1180.18	1.07518
1183.55	0.935593
1186.93	0.671471
1190.3	0.973282
1193.68	2.02178
1197.05	0.849709
1200.43	1.40854
1203.8	2.00671
1207.18	1.32504
1210.55	1.69379
1213.93	0.885239
1217.3	1.25892
1220.68	2.17629
1224.05	2.34516
1227.43	1.64869
1230.8	1.0909
1234.18	3.20355
1237.55	1.7066
1240.92	0.675964
1244.3	2.3192
1247.67	1.16071
1251.05	1.66562
1254.42	1.12946
1257.8	2.33938
1261.17	2.47201
1264.55	2.12761
1267.92	1.52219
1271.3	1.62558
1274.67	0.299179
1278.05	1.53955
1281.42	2.07384
1284.8	0
