Measurement: Raman, 532 nm, unoriented, Raman Data Processed
Mineral: Walpurgite
Rruff sample: R050573
Ideal chemistry: Bi^3+^_4_O_4_(U^6+^O_2_)(As^5+^O_4_)_2_2H_2_O
Locality: Joachimstal, Bohemia, Czech Republic
Source: University of Arizona Mineral Museum
Description: Yellow thin tabular crystals associated with metazeunerite, R060301
Raman shift (cm-1)	intensity
160.54	0
163.433	7.97238
166.326	7.99008
169.218	4.66644
172.111	2.54942
175.004	3.89217
177.896	27.6683
180.789	46.3196
183.682	63.7983
186.575	81.9589
189.467	94.0562
192.36	119.244
195.253	116.021
198.145	78.9536
201.038	52.7282
203.931	51.8765
206.823	49.9179
209.716	42.1612
212.609	56.7405
215.501	61.5691
218.394	61.6104
221.287	53.9399
224.18	40.013
227.072	29.3627
229.965	31.9513
232.858	28.1901
235.75	25.608
238.643	20.388
241.536	4.48352
244.429	4.32764
247.321	1.70242
250.214	6.72054
253.107	5.188
255.999	14.8469
258.892	30.9231
261.785	57.1523
264.678	99.1285
267.57	136.837
270.463	192.341
273.356	235.947
276.248	291.772
279.141	357.256
282.034	427.917
284.926	507.759
287.819	602.086
290.712	675.638
293.604	711.593
296.497	650.012
299.39	542.185
302.283	400.165
305.175	274.281
308.068	183.04
310.961	125.395
313.853	89.799
316.746	60.8196
319.639	56.3958
322.531	57.059
325.424	79.7826
328.317	96.7984
331.21	102.978
334.102	55.9201
336.995	37.2531
339.888	6.97529
342.781	0.63655
345.673	6.04413
348.566	0.398588
351.459	7.14828
354.351	18.8454
357.244	36.3231
360.137	47.9259
363.029	59.2156
365.922	43.6413
368.815	27.978
371.707	0.27934
374.6	1.76414
377.493	3.75643
380.386	2.6948
383.278	1.32859
386.171	5.41733
389.064	11.862
391.956	5.74231
394.849	2.6709
397.742	2.72815
400.635	1.4219
403.527	1.40869
406.42	0.610236
409.313	0.969119
412.205	2.35809
415.098	23.1751
417.991	42.682
420.884	57.7456
423.776	84.4586
426.669	75.8915
429.562	84.2331
432.454	56.7804
435.347	35.7007
438.24	13.4292
441.132	0.836152
444.025	0.999711
446.918	0.459327
449.81	2.59236
452.703	4.87151
455.596	15.1304
458.489	19.2065
461.381	22.7467
464.274	38.9379
467.167	56.2372
470.059	71.2869
472.952	93.1196
475.845	110.236
478.738	116.099
481.63	133.025
484.523	150.576
487.416	171.808
490.308	221.067
493.201	290.866
496.094	399.532
498.986	520.614
501.879	655.08
504.772	815.053
507.665	958.247
510.557	1027.58
513.45	950.192
516.343	748.333
519.235	523.544
522.128	350.478
525.021	246.347
527.913	179.093
530.806	115.471
533.699	91.7333
536.592	60.3448
539.484	54.0157
542.377	38.5791
545.27	43.3322
548.162	27.3472
551.055	13.0646
553.948	8.48625
556.841	2.09207
559.733	1.01312
562.626	2.93222
565.519	0.291772
568.411	2.84626
571.304	7.43603
574.197	2.07677
577.09	0.201151
579.982	1.23456
582.875	2.17202
585.768	3.45405
588.66	8.37449
591.553	11.503
594.446	14.3155
597.338	20.7574
600.231	12.7672
603.124	10.4148
606.016	11.1092
608.909	11.0613
611.802	8.45392
614.695	12.2854
617.587	10.4899
620.48	9.8263
623.373	12.5236
626.265	19.5409
629.158	16.9256
632.051	8.25247
634.943	2.67012
637.836	1.93191
640.729	6.25729
643.622	11.3702
646.514	13.6211
649.407	15.069
652.3	11.7826
655.192	11.8477
658.085	8.9394
660.978	14.5125
663.871	8.99704
666.763	11.3418
669.656	14.989
672.549	9.36647
675.441	11.3572
678.334	7.37628
681.227	13.6633
684.12	10.3691
687.012	5.32365
689.905	4.75619
692.798	6.47621
695.69	0.86321
698.583	1.33494
701.476	4.40335
704.368	5.73531
707.261	2.04626
710.154	1.32309
713.047	3.76393
715.939	3.5896
718.832	3.14151
721.725	1.06416
724.617	3.38316
727.51	2.89685
730.403	0.672455
733.295	4.26071
736.188	5.16301
739.081	3.37176
741.974	4.00436
744.866	22.0852
747.759	37.0881
750.652	45.1445
753.544	64.0468
756.437	88.8609
759.33	115.711
762.222	144.402
765.115	191.082
768.008	241.306
770.901	286.831
773.793	339.003
776.686	417.164
779.579	544.929
782.471	690.112
785.364	758.071
788.257	742.774
791.149	705.641
794.042	568.481
796.935	340.249
799.828	171.185
802.72	100.332
805.613	66.6422
808.506	50.5759
811.399	41.2749
814.291	68.0551
817.184	82.1808
820.077	118.161
822.969	202.806
825.862	304.602
828.755	447.032
831.647	637.537
834.54	767.522
837.433	669.248
840.326	407.139
843.218	225.988
846.111	143.4
849.004	93.0766
851.896	54.9986
854.789	39.2424
857.682	22.3723
860.574	10.2988
863.467	6.57673
866.36	3.64702
869.253	1.63011
872.145	1.76322
875.038	2.53105
877.931	3.25036
880.823	0.834118
883.716	8.24197
886.609	9.93465
889.501	16.0987
892.394	0.770703
895.287	5.97634
898.18	2.48998
901.072	2.75418
903.965	4.37618
906.858	5.20109
909.75	8.79983
912.643	4.19701
915.536	4.99675
918.428	5.8914
921.321	1.26913
924.214	0.186681
927.107	5.07235
929.999	8.36121
932.892	9.64055
935.785	12.5493
938.677	14.0344
941.57	15.6599
944.463	12.84
947.356	16.187
950.248	8.17857
953.141	13.7383
956.034	9.95806
958.926	6.52002
961.819	12.7643
964.712	11.3207
967.605	4.90608
970.497	6.14396
973.39	8.91836
976.283	6.24393
979.175	8.11504
982.068	2.10807
984.961	0.110956
987.853	6.46611
990.746	13.7374
993.639	9.05279
996.532	4.95859
999.424	8.14532
1002.32	11.0486
1005.21	4.50928
1008.1	1.73087
1011	5.174
1013.89	9.35588
1016.78	9.69579
1019.67	10.5706
1022.57	5.54311
1025.46	6.6802
1028.35	7.17794
1031.24	4.19633
1034.14	4.71726
1037.03	2.34428
1039.92	0.289287
1042.82	1.15528
1045.71	8.32212
1048.6	4.99102
1051.49	2.47106
1054.39	6.37536
1057.28	11.0113
1060.17	3.09075
1063.06	2.84456
1065.96	2.82129
1068.85	1.7739
1071.74	0.70007
1074.63	1.27458
1077.53	5.09608
1080.42	4.95346
1083.31	3.82863
1086.2	4.37398
1089.1	5.36956
1091.99	8.293
1094.88	5.76643
1097.78	8.1601
1100.67	11.9408
1103.56	4.91115
1106.45	6.71332
1109.35	0.835545
1112.24	8.53414
1115.13	5.74326
1118.03	6.14297
1120.92	8.0136
1123.81	7.57724
1126.7	0.040539
1129.6	5.63231
1132.49	1.17784
1135.38	6.47179
1138.27	5.59135
1141.17	5.11155
1144.06	1.36342
1146.95	3.28781
1149.85	12.0865
1152.74	6.13789
1155.63	6.96736
1158.52	0.319373
1161.42	2.57819
1164.31	3.19406
1167.2	0.069913
1170.09	3.39881
1172.99	2.93518
1175.88	3.17924
1178.77	2.22704
1181.66	6.32376
1184.56	2.67744
1187.45	0.187405
1190.34	0.705441
1193.23	3.05657
1196.13	2.41285
1199.02	0.671149
1201.91	3.29976
1204.81	4.79339
1207.7	2.6235
1210.59	2.40424
1213.48	9.01566
1216.38	2.93832
1219.27	3.43972
1222.16	7.68686
1225.06	5.66314
1227.95	7.66066
1230.84	7.44213
1233.73	10.6934
1236.63	0.632048
1239.52	0.734828
1242.41	6.7373
1245.3	4.2119
1248.2	6.90042
1251.09	11.8923
1253.98	6.58404
1256.88	8.30762
1259.77	6.82722
1262.66	10.9471
1265.55	0.724281
1268.45	11.4345
1271.34	19.9512
1274.23	10.5746
1277.12	7.09379
1280.02	9.01871
1282.91	5.86071
1285.8	5.94691
1288.69	6.38126
1291.59	9.86963
1294.48	2.64335
1297.37	1.18058
1300.27	3.79574
