Measurement: Raman, 780 nm, unoriented, Raman Data Processed
Mineral: Walpurgite
Rruff sample: R050573
Ideal chemistry: Bi^3+^_4_O_4_(U^6+^O_2_)(As^5+^O_4_)_2_2H_2_O
Locality: Joachimstal, Bohemia, Czech Republic
Source: University of Arizona Mineral Museum
Description: Yellow thin tabular crystals associated with metazeunerite, R060301
Raman shift (cm-1)	intensity
158.597	0
161.49	4.86259
164.383	3.2721
167.276	0.715726
170.168	1.45482
173.061	0.498839
175.954	4.38932
178.846	9.23372
181.739	15.4631
184.632	22.8199
187.524	30.7392
190.417	35.2053
193.31	38.4473
196.203	32.0794
199.095	22.311
201.988	16.6163
204.881	15.2035
207.773	13.972
210.666	13.9756
213.559	13.8147
216.451	10.9779
219.344	9.56088
222.237	8.25934
225.13	6.99821
228.022	5.80022
230.915	3.96193
233.808	2.92404
236.7	1.97777
239.593	1.28287
242.486	1.20513
245.378	1.09587
248.271	2.06672
251.164	4.1932
254.056	8.11329
256.949	10.8268
259.842	14.2086
262.735	17.8486
265.627	20.6023
268.52	23.1836
271.413	24.7458
274.305	22.9679
277.198	19.5759
280.091	16.2495
282.983	15.172
285.876	14.5358
288.769	13.4962
291.662	13.487
294.554	12.6113
297.447	7.91769
300.34	3.75223
303.232	0.795812
306.125	0.413032
309.018	0.397993
311.911	0.445214
314.803	0.415012
317.696	0.930005
320.589	2.56491
323.481	3.96767
326.374	4.13632
329.267	3.25387
332.159	1.21573
335.052	1.15667
337.945	0.274338
340.837	1.73794
343.73	5.02562
346.623	9.12368
349.516	12.5923
352.408	17.0798
355.301	20.7934
358.194	23.9419
361.086	24.3394
363.979	23.6612
366.872	20.467
369.764	16.0734
372.657	10.043
375.55	7.57008
378.442	3.97546
381.335	2.65029
384.228	1.01523
387.121	0.040937
390.013	0.073201
392.906	0.880897
395.799	0.249263
398.691	0.096508
401.584	0.387303
404.477	0.504528
407.37	0.208164
410.262	0.405845
413.155	0.29158
416.048	0.695668
418.94	1.00814
421.833	1.95
424.726	2.99555
427.618	3.22658
430.511	3.08077
433.404	1.6582
436.296	1.70552
439.189	0.510046
442.082	0.393286
444.975	0.488904
447.867	0.497922
450.76	0.538525
453.653	2.06419
456.545	2.12225
459.438	3.12261
462.331	3.49306
465.224	4.48094
468.116	7.2293
471.009	8.35741
473.902	11.5885
476.794	13.2625
479.687	15.6858
482.58	17.659
485.472	22.1205
488.365	28.0266
491.258	34.4089
494.151	46.1453
497.043	59.4886
499.936	72.6953
502.829	84.0547
505.721	93.9833
508.614	99.6646
511.507	96.468
514.399	82.3163
517.292	59.2021
520.185	40.1238
523.077	25.0247
525.97	17.7246
528.863	12.1269
531.756	8.31813
534.648	6.16482
537.541	4.26928
540.434	3.15318
543.326	2.93841
546.219	1.17699
549.112	1.13181
552.004	1.33741
554.897	0.437536
557.79	0.126938
560.683	0.068311
563.575	0.353311
566.468	0.323656
569.361	0.133883
572.253	0.276392
575.146	0.059655
578.039	0.165144
580.931	0.142036
583.824	0.360357
586.717	0.479794
589.61	0.739332
592.502	1.40702
595.395	1.21413
598.288	2.07792
601.18	3.80894
604.073	2.931
606.966	3.31975
609.858	3.49719
612.751	1.91641
615.644	3.48533
618.537	3.29776
621.429	2.47806
624.322	1.9933
627.215	1.23467
630.107	0.110334
633	0.761968
635.893	0.806788
638.785	1.17455
641.678	0.128504
644.571	0.614466
647.463	0.776282
650.356	0.694992
653.249	1.49663
656.141	1.96415
659.034	1.14127
661.927	1.22715
664.82	0.841583
667.712	1.0095
670.605	1.09041
673.498	1.99397
676.39	1.76604
679.283	0.893757
682.176	0.630995
685.068	2.03572
687.961	1.24151
690.854	1.08546
693.747	1.18587
696.639	0.24386
699.532	0.312544
702.425	0.024547
705.317	0.54444
708.21	0.012242
711.103	0.493197
713.995	0.05311
716.888	0.165944
719.781	0.280498
722.674	0.259151
725.566	0.372327
728.459	0.357737
731.352	0.019188
734.244	0.004492
737.137	0.169572
740.03	1.37361
742.923	0.830307
745.815	2.46365
748.708	2.57758
751.601	3.47129
754.493	5.36576
757.386	6.55758
760.279	8.59944
763.171	11.101
766.064	12.7222
768.957	15.3991
771.85	16.9893
774.742	18.0586
777.635	21.6753
780.528	29.031
783.42	35.1279
786.313	39.5741
789.206	42.9119
792.098	43.4833
794.991	36.4012
797.884	21.8193
800.776	10.6364
803.669	5.38177
806.562	4.57772
809.455	4.09685
812.347	5.0096
815.24	7.38577
818.133	11.0517
821.025	17.9642
823.918	26.6518
826.811	35.5321
829.703	44.3201
832.596	53.6536
835.489	55.0069
838.381	42.8536
841.274	23.9092
844.167	12.4098
847.06	6.62377
849.952	4.92917
852.845	1.95411
855.738	0.753121
858.63	0.422065
861.523	0.124126
864.416	0.703522
867.308	0.086548
870.201	0.633847
873.094	0.073445
875.987	0.731876
878.879	0.286677
881.772	2.02688
884.665	2.98055
887.557	2.27379
890.45	2.46661
893.343	1.46549
896.236	0.201106
899.128	0.056961
902.021	0.667328
904.914	0.25168
907.806	0.078859
910.699	0.21606
913.592	0.347098
916.484	0.072661
919.377	0.023565
922.27	0.167231
925.163	0.339976
928.055	0.541593
930.948	0.012312
933.841	0.620179
936.733	0.91537
939.626	0.555581
942.519	1.19879
945.411	1.05391
948.304	1.44959
951.197	1.12486
954.09	0.936497
956.982	1.37417
959.875	1.35784
962.768	0.951521
965.66	1.03251
968.553	0.903382
971.446	0.740654
974.338	0.294016
977.231	0.799888
980.124	0.578456
983.016	0.01234
985.909	1.01047
988.802	0.153513
991.694	0.481524
994.587	0.636749
997.48	0.527392
1000.37	0.460756
1003.26	0.968312
1006.16	1.24882
1009.05	1.12179
1011.94	0.947891
1014.84	0.995535
1017.73	0.528427
1020.62	0.954719
1023.51	1.15642
1026.41	0.548852
1029.3	0.542171
1032.19	0.745438
1035.09	0.499305
1037.98	0.861336
1040.87	1.09212
1043.76	0.565632
1046.66	0.254077
1049.55	0.412314
1052.44	0.426153
1055.33	0.379976
1058.23	0.344226
1061.12	0.166588
1064.01	0.163176
1066.9	0.182234
1069.8	0.285456
1072.69	0.124168
1075.58	0.354829
1078.47	0.149805
1081.37	0.169217
1084.26	0.099627
1087.15	0.019101
1090.05	0.706287
1092.94	0.993145
1095.83	0.956535
1098.72	0.768318
1101.62	0.709037
1104.51	0.456521
1107.4	0.761741
1110.3	0.409289
1113.19	0.671499
1116.08	0.725606
1118.97	0.325421
1121.87	0.642032
1124.76	0.782831
1127.65	0.001347
1130.54	0.695314
1133.44	1.00524
1136.33	0.255658
1139.22	0.631644
1142.12	0.098879
1145.01	0.068128
1147.9	0.650415
1150.79	0.544406
1153.69	0.638111
1156.58	0.31213
1159.47	0.776876
1162.36	0.496732
1165.26	0.335147
1168.15	0.106819
1171.04	0.826146
1173.93	0.632495
1176.83	0.49062
1179.72	0.579322
1182.61	0.797521
1185.51	0.51496
1188.4	1.06668
1191.29	0.587316
1194.18	0.925
1197.08	0.761293
1199.97	0.942699
1202.86	0.072954
1205.75	0.22419
1208.65	0.587336
1211.54	0.626121
1214.43	0.414363
1217.33	0.570587
1220.22	0.806692
1223.11	1.23908
1226	0.637394
1228.9	0.887776
1231.79	0.22146
1234.68	0.702624
1237.57	0.582849
1240.47	0.087157
1243.36	0.78453
1246.25	0.573465
1249.14	0.419218
1252.04	0.528535
1254.93	0.619377
1257.82	1.22088
1260.71	0.860269
1263.61	0.313221
1266.5	1.44422
1269.39	0.882885
1272.29	0.970104
1275.18	1.36539
1278.07	1.14135
1280.96	0.628749
1283.86	0.02014
