Measurement: Raman, 780 nm, unoriented, Raman Data Processed
Mineral: Walstromite
Rruff sample: R070634
Ideal chemistry: BaCa_2_Si_3_O_9_
Locality: Esquire number 8 mine, Big Creek, Fresno County, California, USA
Source: Michael Scott
Description: Colorless massive with pronounced cleavage, strong orange-pink fluorescence under long-wave ultraviolet light
Measured chemistry: (Ba_0.96_Sr_0.02_Ca_0.02_)_Σ=1_(Ca_1.98_Mn_0.02_)_Σ=2_Si_3.00_O_9_; trace amounts of Ti
Raman shift (cm-1)	intensity
109.399	0
112.292	1.72022
115.184	70.4221
118.077	70.0802
120.97	158.189
123.862	279.473
126.755	334.093
129.648	234.106
132.541	214.34
135.433	356.83
138.326	199.648
141.219	155.694
144.111	103.39
147.004	204.502
149.897	309.623
152.79	422.758
155.682	580.407
158.575	778.094
161.468	750.265
164.36	759.419
167.253	778.019
170.146	603.836
173.038	382.116
175.931	271.843
178.824	162.811
181.716	221.573
184.609	204.088
187.502	264.111
190.395	340.194
193.287	516.776
196.18	738.996
199.073	988.895
201.965	1252.31
204.858	1454.49
207.751	1637.08
210.643	1748.33
213.536	1764.64
216.429	1620.46
219.322	1424.89
222.214	1248.66
225.107	1014.19
228	806.461
230.892	558.698
233.785	451.539
236.678	342.609
239.571	273.357
242.463	145.167
245.356	84.4714
248.249	64.9128
251.141	32.7507
254.034	10.0884
256.927	48.4507
259.819	43.5151
262.712	11.4805
265.605	67.6514
268.498	51.6602
271.39	41.6191
274.283	73.6445
277.176	78.4961
280.068	130.399
282.961	117.978
285.854	94.2617
288.746	190.077
291.639	161.345
294.532	194.617
297.425	199.108
300.317	266.971
303.21	300.87
306.103	314.444
308.995	292.279
311.888	300.039
314.781	238.243
317.673	152.854
320.566	11.2705
323.459	34.0022
326.351	70.5352
329.244	55.0193
332.137	28.272
335.03	19.3811
337.922	12.4898
340.815	113.021
343.708	225.559
346.6	270.295
349.493	332.359
352.386	349.589
355.279	403.777
358.171	432.208
361.064	566.616
363.957	654.532
366.849	802.005
369.742	1010.14
372.635	1284.47
375.527	1617.65
378.42	2216.89
381.313	2842.39
384.205	3851.12
387.098	5243.86
389.991	7031.55
392.884	9050.07
395.776	11515.3
398.669	13694.5
401.562	15110.9
404.454	15240.4
407.347	13961.2
410.24	11926.5
413.132	9724.69
416.025	7732.27
418.918	6118.65
421.811	4873.06
424.703	4049.29
427.596	3263.09
430.489	2733.85
433.381	2302.83
436.274	1935.54
439.167	1619.86
442.06	1400.99
444.952	1171.43
447.845	1019.71
450.738	798.03
453.63	669.96
456.523	530.021
459.416	410.028
462.308	283.676
465.201	172.76
468.094	114.701
470.986	55.9365
473.879	23.0476
476.772	46.7734
479.665	73.8628
482.557	73.3408
485.45	73.9287
488.343	24.8904
491.235	64.033
494.128	179.32
497.021	284.164
499.913	408.521
502.806	551.444
505.699	645.013
508.592	744.46
511.484	925.703
514.377	1038.39
517.27	1218.98
520.162	1420.17
523.055	1631.17
525.948	1803.04
528.841	1939.2
531.733	2056.49
534.626	2052.44
537.519	1964.65
540.411	1810.92
543.304	1608.46
546.197	1389.93
549.089	1257.6
551.982	1031.78
554.875	883.257
557.768	681.861
560.66	579.18
563.553	496.791
566.446	382.458
569.338	300.755
572.231	246.448
575.124	131.625
578.016	124.994
580.909	106.054
583.802	54.0818
586.694	18.8042
589.587	27.9363
592.48	37.4707
595.373	48.7051
598.265	133.779
601.158	213.383
604.051	281.236
606.943	337.953
609.836	332.303
612.729	328.791
615.621	346.659
618.514	299.832
621.407	301.458
624.3	316.289
627.192	358.5
630.085	383.644
632.978	455.788
635.87	605.744
638.763	720.667
641.656	968.88
644.548	1084.95
647.441	1461.57
650.334	1689.09
653.227	1554.79
656.119	1230.34
659.012	1089.49
661.905	906.881
664.797	758.54
667.69	688.926
670.583	482.708
673.476	370.458
676.368	290.126
679.261	177.634
682.154	141.709
685.046	54.8596
687.939	9.44629
690.832	41.0193
693.724	44.7725
696.617	67.2134
699.51	8.91821
702.403	11.3957
705.295	38.5403
708.188	28.7357
711.081	56.5967
713.973	21.4379
716.866	52.0585
719.759	46.0147
722.651	112.302
725.544	122.909
728.437	144.093
731.33	252.632
734.222	293.02
737.115	349.977
740.008	426.252
742.9	537.362
745.793	595.707
748.686	590.547
751.578	520.897
754.471	423.981
757.364	340.62
760.256	240.013
763.149	201.035
766.042	141.817
768.935	89.8353
771.827	70.2913
774.72	75.5502
777.613	69.1351
780.505	159.186
783.398	135.012
786.291	143.226
789.183	148.276
792.076	146.195
794.969	154.447
797.862	141.168
800.754	99.8445
803.647	43.4501
806.54	66.0088
809.432	79.8967
812.325	12.1393
815.218	27.0167
818.111	37.67
821.003	37.9595
823.896	50.3127
826.788	65.4941
829.681	143.272
832.574	205.376
835.467	332.61
838.359	425.328
841.252	487.293
844.145	590.237
847.037	564.515
849.93	636.635
852.823	566.563
855.716	565.128
858.608	500.25
861.501	411.073
864.394	380
867.286	305.15
870.179	279.045
873.072	247.228
875.964	233.644
878.857	202.247
881.75	176.906
884.643	138.188
887.535	141.867
890.428	96.3335
893.321	91.1753
896.213	56.8539
899.106	32.5946
901.999	38.4325
904.891	2.9054
907.784	23.0673
910.677	17.7212
913.569	0.296265
916.462	11.1294
919.355	17.0094
922.248	19.0131
925.14	6.78686
928.033	4.99085
930.926	11.8584
933.818	18.853
936.711	22.2173
939.604	76.7716
942.496	68.6384
945.389	87.1477
948.282	87.6011
951.175	98.1295
954.067	133.873
956.96	202.52
959.853	250.123
962.745	287.809
965.638	346.436
968.531	362.894
971.423	446.941
974.316	483.115
977.209	550.25
980.102	677.41
982.994	809.939
985.887	941.849
988.78	856.701
991.672	629.312
994.565	546.688
997.458	423.659
1000.35	383.578
1003.24	304.071
1006.14	324.236
1009.03	282.676
1011.92	256.257
1014.81	255.429
1017.71	212.852
1020.6	218.857
1023.49	203.35
1026.38	215.023
1029.28	187.292
1032.17	182.3
1035.06	212.88
1037.96	298.107
1040.85	251
1043.74	313.77
1046.63	319.153
1049.53	393.697
1052.42	456.415
1055.31	406.162
1058.2	531.961
1061.1	553.817
1063.99	538.964
1066.88	513.105
1069.78	497.842
1072.67	388.168
1075.56	131.962
1078.45	137.566
1081.35	95.0356
1084.24	55.8433
1087.13	55.3965
1090.02	9.3667
1092.92	1.03906
1095.81	21.1836
1098.7	47.4697
1101.6	27.8594
1104.49	64.6387
1107.38	182.433
1110.27	240.496
1113.17	251.853
1116.06	279.729
1118.95	163.542
1121.84	152.774
1124.74	170.623
1127.63	82.9023
1130.52	89.1367
1133.41	33.877
