Measurement: Raman, 780 nm, unoriented, Raman Data Processed
Mineral: Walstromite
Rruff sample: R150079
Ideal chemistry: BaCa_2_Si_3_O_9_
Locality: Gun Claim, Yukon Territory, Canada
Source: Gunnar Farber
Description: Colorless granular or short prismatic crystals with good cleavage, associated with suzukiite (R150039), pellyite (R150078), and bavsiite.
Raman shift (cm-1)	intensity
90.5957	0
93.4884	143.704
96.3811	79.1309
99.2738	26.5704
102.166	73.6542
105.059	68.3581
107.952	4.17407
110.845	22.3223
113.737	74.808
116.63	163.224
119.523	130.451
122.415	284.133
125.308	469.193
128.201	215.337
131.094	186.749
133.986	263.498
136.879	358.952
139.772	191.469
142.664	39.2499
145.557	19.2795
148.45	80.4313
151.342	216.285
154.235	399.959
157.128	379.25
160.02	398.58
162.913	383.918
165.806	281.625
168.698	197.038
171.591	100.663
174.484	32.1936
177.377	7.57361
180.269	6.91943
183.162	30.6122
186.055	44.7539
188.947	91.0967
191.84	132.543
194.733	182.771
197.625	250.778
200.518	342.206
203.411	444.468
206.304	547.976
209.196	620.797
212.089	648.802
214.982	651.88
217.874	601.446
220.767	509.994
223.66	415.056
226.553	327.54
229.445	252.532
232.338	184.294
235.231	127.43
238.123	93.1971
241.016	68.1021
243.909	44.1578
246.801	26.8843
249.694	7.67761
252.587	16.3256
255.48	17.0917
258.372	8.32568
261.265	8.21484
264.158	36.636
267.05	46.4927
269.943	43.5049
272.836	39.8108
275.728	31.1867
278.621	40.3533
281.514	53.1328
284.406	85.6766
287.299	149.751
290.192	233.472
293.085	223.079
295.977	150.808
298.87	150.742
301.763	198.61
304.655	202.287
307.548	165.472
310.441	140.455
313.334	101.732
316.226	70.978
319.119	56.2679
322.012	21.7218
324.904	15.7957
327.797	32.61
330.69	35.6168
333.582	21.0538
336.475	4.3092
339.368	40.4751
342.26	89.1057
345.153	143.457
348.046	171.108
350.938	149.646
353.831	135.278
356.724	146.509
359.617	171.961
362.509	206.965
365.402	262.54
368.295	342.202
371.187	429.341
374.08	513.933
376.973	677.028
379.865	887.482
382.758	1140.66
385.651	1478.2
388.544	1965.76
391.436	2599.47
394.329	3389.69
397.222	4158.35
400.114	4706.39
403.007	4794.24
405.9	4362.62
408.793	3685.25
411.685	3017.22
414.578	2429.62
417.471	1906.39
420.363	1496.81
423.256	1207.76
426.149	985.984
429.041	833.239
431.934	709.146
434.827	609.788
437.719	536.054
440.612	468.89
443.505	420.357
446.398	343.508
449.29	280.291
452.183	235.857
455.076	180.231
457.968	136.214
460.861	99.9921
463.754	72.9814
466.647	52.4333
469.539	44.5703
472.432	24.0684
475.325	15.9861
478.217	19.3141
481.11	37.0331
484.003	37.8696
486.895	25.3043
489.788	0.870728
492.681	47.721
495.573	107.069
498.466	163.701
501.359	167.003
504.252	184.5
507.144	204.775
510.037	245.847
512.93	281.008
515.822	328.378
518.715	403.479
521.608	483.056
524.5	550.793
527.393	626.514
530.286	682.502
533.178	726.339
536.071	732.439
538.964	707.047
541.857	638.756
544.749	559.803
547.642	478.25
550.535	398.711
553.427	320.311
556.32	252.402
559.213	193.76
562.106	146.232
564.998	106.603
567.891	85.4115
570.784	67.8925
573.676	58.1484
576.569	66.983
579.462	103.874
582.354	165.643
585.247	87.2195
588.14	2.57947
591.033	19.5569
593.925	15.215
596.818	4.73377
599.711	22.9635
602.603	53.1553
605.496	74.5947
608.389	93.0096
611.281	98.3506
614.174	102.443
617.067	99.255
619.96	98.2195
622.852	102.61
625.745	110.478
628.638	129.591
631.53	161.378
634.423	205.091
637.316	253.972
640.208	335.666
643.101	460.043
645.994	653.225
648.886	919.315
651.779	1148.55
654.672	905.544
657.564	590.749
660.457	427.959
663.35	336.374
666.243	267.18
669.135	212.184
672.028	163.257
674.921	112.206
677.813	77.0164
680.706	48.6384
683.599	19.571
686.491	11.878
689.384	10.7752
692.277	38.8207
695.17	6.96143
698.062	17.6462
700.955	13.8759
703.848	2.86169
706.74	1.69672
709.633	10.978
712.526	24.4147
715.418	29.8352
718.311	34.756
721.204	45.3735
724.097	48.864
726.989	57.3216
729.882	78.9755
732.775	105.507
735.667	130.425
738.56	160.475
741.453	189.741
744.346	219.495
747.238	233.483
750.131	236.372
753.024	222.5
755.916	193.118
758.809	147.003
761.702	106.825
764.594	71.6683
767.487	50.5393
770.38	31.5286
773.273	23.8906
776.165	26.4806
779.058	26.5469
781.951	34.634
784.843	45.6989
787.736	51.1215
790.629	58.2259
793.521	57.0057
796.414	61.2568
799.307	52.0685
802.199	37.6698
805.092	28.7402
807.985	14.5762
810.878	2.64423
813.77	5.00958
816.663	4.88739
819.556	2.2522
822.448	4.93396
825.341	23.6041
828.234	42.1679
831.126	63.3266
834.019	90.9324
836.912	119.744
839.804	153.938
842.697	179.451
845.59	191.786
848.483	195.49
851.375	188.254
854.268	173.672
857.161	155.278
860.053	133.401
862.946	122.401
865.839	102.451
868.731	90.245
871.624	75.2212
874.517	72.2786
877.409	61.808
880.302	59.6999
883.195	53.3497
886.088	47.0507
888.98	42.0059
891.873	33.5326
894.766	25.9689
897.658	15.3328
900.551	14.949
903.444	12.4048
906.337	13.3149
909.229	1.13037
912.122	5.40314
915.015	1.76892
917.907	0.588074
920.8	9.38415
923.693	1.00458
926.585	2.33313
929.478	2.81165
932.371	10.3255
935.264	17.9349
938.156	35.5342
941.049	50.6467
943.942	43.9908
946.834	41.2231
949.727	41.3016
952.62	51.6179
955.512	63.8628
958.405	80.6423
961.298	97.5634
964.191	113.972
967.083	136.926
969.976	167.586
972.869	199.239
975.761	241.222
978.654	296.054
981.547	377.256
984.439	545.515
987.332	822.45
990.225	792.631
993.117	439.539
996.01	253.547
998.903	177.54
1001.8	137.781
1004.69	99.6166
1007.58	76.3418
1010.47	66.9633
1013.37	56.313
1016.26	46.9413
1019.15	25.2941
1022.04	8.3891
1024.94	6.08875
1027.83	2.24268
1030.72	7.15466
1033.62	1.34631
1036.51	32.3742
1039.4	71.0531
1042.29	95.0939
1045.19	46.5383
1048.08	16.6272
1050.97	10.8998
1053.86	17.7965
1056.76	43.7964
1059.65	139.558
1062.54	288.043
1065.43	80.1432
1068.33	65.5193
1071.22	99.5079
1074.11	79.9683
1077.01	54.6692
1079.9	39.9281
1082.79	24.6394
1085.68	16.2589
1088.58	2.19824
1091.47	1.17981
1094.36	0.975952
1097.26	3.80408
1100.15	23.1989
1103.04	34.3347
1105.93	46.6372
1108.83	41.1853
1111.72	43.6575
1114.61	23.9141
1117.5	12.5813
1120.4	3.28687
