Measurement: Raman, 532 nm, unoriented, Raman Data Processed
Mineral: Walstromite
Rruff sample: R150079
Ideal chemistry: BaCa_2_Si_3_O_9_
Locality: Gun Claim, Yukon Territory, Canada
Source: Gunnar Farber
Description: Colorless granular or short prismatic crystals with good cleavage, associated with suzukiite (R150039), pellyite (R150078), and bavsiite.
Raman shift (cm-1)	intensity
90.7474	0
94.1222	11.9962
97.4971	2.88013
100.872	18.0051
104.247	61.6363
107.621	69.6941
110.996	117.995
114.371	321.011
117.746	269.68
121.121	385.77
124.496	661.922
127.87	321.19
131.245	426.656
134.62	846.144
137.995	770.934
141.37	332.031
144.744	260.617
148.119	349.816
151.494	596.514
154.869	691.316
158.244	577.614
161.619	475.11
164.993	157.968
168.368	58.3387
171.743	11.0713
175.118	0.977692
178.493	28.8984
181.868	56.0523
185.242	36.6334
188.617	36.8804
191.992	25.9449
195.367	3.62769
198.742	12.7341
202.116	2.92026
205.491	15.6006
208.866	33.3752
212.241	58.2483
215.616	119.18
218.99	128.027
222.365	109.571
225.74	108.71
229.115	68.6572
232.49	31.3606
235.865	22.1923
239.239	28.7759
242.614	35.168
245.989	38.6634
249.364	22.7394
252.739	4.59464
256.113	2.69049
259.488	18.1403
262.863	45.0101
266.238	65.6365
269.613	60.5748
272.988	44.218
276.362	57.4271
279.737	95.067
283.112	144.075
286.487	255.422
289.862	368.93
293.236	259.675
296.611	144.297
299.986	173.623
303.361	143.681
306.736	35.6176
310.111	10.7559
313.485	23.63
316.86	51.6909
320.235	44.7619
323.61	5.89014
326.985	10.782
330.359	1.29822
333.734	18.7022
337.109	46.2493
340.484	86.1033
343.859	140.294
347.233	151.773
350.608	71.2564
353.983	29.018
357.358	26.1583
360.733	42.2602
364.108	85.992
367.482	133.614
370.857	145.699
374.232	157.963
377.607	206.142
380.982	161.564
384.356	60.671
387.731	13.2092
391.106	0.530701
394.481	0.896973
397.856	10.4629
401.231	32.1189
404.605	57.3461
407.98	98.8226
411.355	159.083
414.73	172.089
418.105	78.999
421.479	26.6125
424.854	2.47461
428.229	2.09125
431.604	1.26514
434.979	4.66382
438.354	15.2261
441.728	33.1826
445.103	14.3666
448.478	1.02667
451.853	0.722046
455.228	7.15942
458.603	20.5107
461.977	43.3646
465.352	72.8923
468.727	95.8472
472.102	94.8587
475.477	80.1132
478.851	35.6829
482.226	29.8431
485.601	47.2082
488.976	81.4742
492.351	138.227
495.726	219.767
499.1	218.36
502.475	206.192
505.85	139.333
509.225	105.067
512.6	56.7487
515.974	23.7447
519.349	11.6904
522.724	6.32471
526.099	4.3327
529.474	2.42481
532.848	0.336314
536.223	0.51825
539.598	2.07538
542.973	0.69635
546.348	3.22913
549.722	18.1663
553.097	12.5909
556.472	8.89539
559.847	8.98456
563.222	14.1383
566.597	27.8606
569.971	53.2223
573.346	91.5662
576.721	171.894
580.096	301.181
583.471	289.272
586.846	78.1816
590.22	18.3121
593.595	6.84399
596.97	0.530945
600.345	0.220703
603.72	1.05524
607.094	0.323181
610.469	0.801392
613.844	5.0567
617.219	3.88117
620.594	12.3115
623.968	18.3361
627.343	32.7149
630.718	60.8792
634.093	123.366
637.468	266.485
640.843	468.753
644.217	806.471
647.592	1346.65
650.967	1778.75
654.342	1025.4
657.717	375.752
661.091	160.601
664.466	77.4117
667.841	45.0065
671.216	27.2521
674.591	19.4257
677.966	24.2739
681.34	39.2571
684.715	78.0142
688.09	161.411
691.465	310.063
694.84	95.4849
698.215	21.3817
701.589	12.0099
704.964	0.639282
708.339	1.38074
711.714	0.55127
715.089	5.50116
718.463	15.6876
721.838	24.429
725.213	22.6585
728.588	28.0617
731.963	30.4021
735.337	15.5895
738.712	6.56689
742.087	2.86597
745.462	4.04553
748.837	3.74707
752.212	3.01245
755.586	1.86084
758.961	2.03479
762.336	0.333923
765.711	1.82074
769.086	3.02338
772.46	3.32898
775.835	2.53979
779.21	2.80969
782.585	0.129639
785.96	3.32385
789.335	1.55542
792.709	2.29797
796.084	0.265747
799.459	0.263672
802.834	4.86633
806.209	3.23962
809.583	5.31982
812.958	4.04675
816.333	6.60388
819.708	11.0112
823.083	13.0295
826.457	17.5196
829.832	18.6007
833.207	10.569
836.582	9.72559
839.957	8.49438
843.332	8.46497
846.706	11.0515
850.081	8.75293
853.456	6.24939
856.831	7.29407
860.206	11.354
863.581	7.83374
866.955	2.84375
870.33	3.58789
873.705	1.99121
877.08	1.41699
880.455	0.817139
883.829	1.9165
887.204	3.47046
890.579	6.55701
893.954	15.4711
897.329	26.2295
900.703	48.4474
904.078	74.6361
907.453	59.9271
910.828	42.165
914.203	46.1748
917.578	68.3384
920.952	70.8583
924.327	53.0264
927.702	55.1019
931.077	75.4115
934.452	87.7864
937.827	100.422
941.201	113.71
944.576	59.4878
947.951	16.0735
951.326	4.03589
954.701	5.17542
958.075	7.30347
961.45	2.53162
964.825	6.51416
968.2	17.3508
971.575	53.489
974.949	146.575
978.324	352.253
981.699	681.182
985.074	1393.5
988.449	1941.62
991.823	899.565
995.198	348.07
998.573	205.455
1001.95	181.66
1005.32	198.927
1008.7	223.012
1012.07	233.794
1015.45	190.682
1018.82	111.253
1022.2	58.3677
1025.57	39.2117
1028.95	50.4025
1032.32	87.0629
1035.7	164.555
1039.07	314.3
1042.45	288.169
1045.82	117.113
1049.19	98.3779
1052.57	191.135
1055.94	402.697
1059.32	1572.7
1062.69	1029.84
1066.07	202.425
1069.44	187.427
1072.82	134.882
1076.19	51.2018
1079.57	18.4847
1082.94	6.81787
1086.32	4.1095
1089.69	1.06775
1093.07	1.96484
1096.44	2.82544
1099.82	5.26807
1103.19	1.27893
1106.57	2.17004
1109.94	1.09888
1113.32	0.157471
1116.69	1.88538
1120.07	7.20557
1123.44	5.38599
1126.82	6.93457
1130.19	4.21545
1133.57	4.91565
1136.94	8.56555
1140.32	9.38916
1143.69	12.8973
1147.07	12.2888
1150.44	15.6593
1153.82	19.052
1157.19	20.0283
1160.56	16.7188
1163.94	11.9533
1167.31	8.75317
1170.69	14.3018
1174.06	11.4111
1177.44	9.56165
1180.81	10.471
1184.19	9.41394
1187.56	9.89246
1190.94	10.9172
1194.31	5.67578
1197.69	10.3525
1201.06	6.48401
1204.44	7.93311
1207.81	9.64136
1211.19	12.8257
1214.56	5.67493
1217.94	3.66052
1221.31	8.52588
1224.69	5.41565
1228.06	4.19409
1231.44	4.16174
1234.81	0.766602
1238.18	0.674561
1241.56	5.16504
1244.93	0.505859
1248.31	5.27966
1251.68	4.02234
1255.06	6.85693
1258.43	9.26794
1261.81	4.77588
1265.18	1.03723
1268.56	1.93591
1271.93	0.23938
1275.31	4.34326
1278.68	2.1239
1282.06	7.07642
1285.43	8.27002
1288.81	4.64697
1292.18	2.61328
1295.56	6.60486
1298.93	5.24146
