Measurement: Raman, 532 nm, unoriented, Raman Data Processed
Mineral: Wardite
Rruff sample: R050643
Ideal chemistry: NaAl_3_(PO_4_)_2_(OH)_4_2H_2_O
Locality: Big Fish River, Yukon Territory, Canada
Source: Rock Currier
Description: Tan bipyramidal pseudo-octahedral crystals
Measured chemistry: (Na_0.93_[box]_0.05_Ca_0.02_)_Σ=1_(Al_2.97_Fe^3+^_0.03_)_Σ=3_(P_1.00_O_4_)_2_((OH)_3.88_F_0.12_)_Σ=4_·2H_2_O
Raman shift (cm-1)	intensity
155.832	0
158.724	24.1232
161.617	196.451
164.51	375.94
167.402	594.966
170.295	911.536
173.188	1316.04
176.081	1994.13
178.973	2698.53
181.866	1473.7
184.759	478.781
187.651	239.502
190.544	117.337
193.437	34.7398
196.329	24.3191
199.222	24.3921
202.115	11.8118
205.008	73.6608
207.9	153.742
210.793	258.549
213.686	417.057
216.578	654.057
219.471	964.304
222.364	1303.57
225.256	927.276
228.149	593.991
231.042	585.785
233.935	622.801
236.827	501.636
239.72	346.663
242.613	311.73
245.505	332.36
248.398	404.226
251.291	530.016
254.184	704.805
257.076	889.852
259.969	1004
262.862	639.812
265.754	266.57
268.647	123.285
271.54	75.7031
274.433	48.8265
277.325	22.1489
280.218	19.8554
283.111	9.02685
286.003	7.04199
288.896	0.384644
291.789	9.64136
294.681	1.84399
297.574	8.97412
300.467	16.011
303.36	22.356
306.252	42.8433
309.145	87.5972
312.038	127.813
314.93	195.238
317.823	266.878
320.716	366.689
323.608	437.738
326.501	432.033
329.394	452.611
332.287	536.418
335.179	601.62
338.072	449.522
340.965	280.191
343.857	199.699
346.75	192.857
349.643	177.238
352.536	140.305
355.428	110.566
358.321	80.8995
361.214	72.1626
364.106	64.8984
366.999	25.7178
369.892	5.47009
372.784	6.75525
375.677	7.13367
378.57	42.3832
381.462	106.296
384.355	183.668
387.248	291.912
390.141	386.18
393.033	462.504
395.926	525.292
398.819	573.192
401.712	553.737
404.604	400.736
407.497	217.698
410.39	95.3556
413.282	30.6578
416.175	8.53796
419.068	3.43018
421.96	2.19788
424.853	0.47583
427.746	3.97424
430.639	9.75501
433.531	16.0114
436.424	50.0836
439.317	65.7218
442.209	63.7413
445.102	51.1334
447.995	42.3495
450.887	56.8287
453.78	71.3971
456.673	91.8202
459.565	99.4774
462.458	100.1
465.351	120.355
468.244	152.445
471.136	228.797
474.029	322.853
476.922	421.93
479.815	526.057
482.707	617.888
485.6	645.089
488.493	548.368
491.385	393.774
494.278	271.949
497.171	231.559
500.063	216.066
502.956	235.592
505.849	244.041
508.741	245.034
511.634	244.832
514.527	171.783
517.42	90.3851
520.312	40.272
523.205	5.93469
526.098	9.35852
528.99	17.6584
531.883	19.1755
534.776	11.5199
537.668	2.00562
540.561	9.59045
543.454	29.8474
546.347	42.8112
549.239	48.2854
552.132	47.673
555.025	46.323
557.917	48.2703
560.81	45.8483
563.703	39.7977
566.596	36.2847
569.488	45.1559
572.381	60.8657
575.274	77.8395
578.166	103.067
581.059	126.26
583.952	150.431
586.845	189.605
589.737	220.07
592.63	237.225
595.523	261.517
598.415	319.259
601.308	428.447
604.201	534.4
607.093	581.742
609.986	608.683
612.879	677.696
615.771	760.664
618.664	789.348
621.557	691.634
624.45	561.94
627.342	442.917
630.235	312.046
633.128	202.536
636.02	136.167
638.913	114.106
641.806	77.3607
644.698	61.2872
647.591	72.9263
650.484	95.1202
653.377	119.453
656.269	149.717
659.162	191.296
662.055	219.134
664.947	225.867
667.84	190.955
670.733	143.9
673.626	101.772
676.518	58.9696
679.411	33.012
682.304	14.0493
685.196	2.87756
688.089	1.83704
690.982	8.84839
693.875	13.4683
696.767	5.29748
699.66	0.97937
702.553	0.630371
705.445	1.05164
708.338	0.26123
711.231	12.0453
714.124	10.6764
717.016	9.11133
719.909	7.33472
722.802	5.44116
725.694	1.3313
728.587	5.68774
731.48	1.52295
734.372	7.69971
737.265	7.70349
740.158	8.70776
743.051	0.654785
745.943	2.99402
748.836	4.33972
751.729	0.855347
754.621	0.537109
757.514	5.39514
760.407	12.4163
763.299	19.1609
766.192	12.2374
769.085	20.1959
771.977	24.4126
774.87	22.1604
777.763	22.1047
780.656	21.6617
783.548	19.1031
786.441	20.0563
789.334	7.75659
792.226	9.69128
795.119	9.14563
798.012	10.9627
800.904	9.08948
803.797	10.2598
806.69	17.3319
809.583	19.085
812.475	10.6754
815.368	11.839
818.261	24.5135
821.154	30.8689
824.046	26.1549
826.939	31.9115
829.832	26.2714
832.724	25.2406
835.617	29.4078
838.51	26.6857
841.402	22.3031
844.295	20.4744
847.188	15.3361
850.081	7.86133
852.973	15.7069
855.866	23.6865
858.759	24.3201
861.651	28.4658
864.544	39.639
867.437	44.723
870.33	72.3977
873.222	84.4518
876.115	97.0446
879.008	109.018
881.9	113.382
884.793	118.565
887.686	106.493
890.578	97.8988
893.471	92.6388
896.364	79.9128
899.256	73.7335
902.149	61.3584
905.042	54.078
907.935	49.0415
910.827	40.9059
913.72	40.8252
916.613	30.3696
919.505	23.4748
922.398	16.833
925.291	7.8811
928.183	8.42419
931.076	6.77075
933.969	8.75562
936.862	7.30347
939.754	3.02075
942.647	1.77625
945.54	15.2529
948.432	11.5051
951.325	11.6265
954.218	4.51416
957.111	7.03442
960.003	4.22412
962.896	14.9677
965.789	27.6306
968.681	51.7324
971.574	88.0636
974.467	149.822
977.36	249.85
980.252	394.153
983.145	639.11
986.038	961.014
988.93	1390.85
991.823	1826.37
994.716	1954.57
997.608	1580.61
1000.5	1043.3
1003.39	630.365
1006.29	403.41
1009.18	271.637
1012.07	206.835
1014.97	168.131
1017.86	142.824
1020.75	139.006
1023.64	153.549
1026.54	197.881
1029.43	274.981
1032.32	386.516
1035.21	538.32
1038.11	746.543
1041	1050.3
1043.89	1429.21
1046.78	1836.76
1049.68	2049.07
1052.57	1737.92
1055.46	1087.84
1058.36	615.086
1061.25	325.211
1064.14	180.228
1067.03	101.09
1069.93	78.3552
1072.82	92.305
1075.71	130.456
1078.6	195.482
1081.5	229.619
1084.39	181.399
1087.28	86.1152
1090.17	14.6374
1093.07	4.22253
1095.96	12.4143
1098.85	13.358
1101.75	3.12073
1104.64	27.2878
1107.53	43.4616
1110.42	69.876
1113.32	80.0962
1116.21	59.5114
1119.1	36.1498
1121.99	24.2246
1124.89	23.4535
1127.78	34.1348
1130.67	40.3554
1133.57	64.3965
1136.46	87.9972
1139.35	107.368
1142.24	105.005
1145.14	84.1017
1148.03	63.7942
1150.92	42.3944
1153.81	20.0912
1156.71	1.73572
1159.6	8.8363
1162.49	6.96143
1165.38	1.28711
1168.28	1.32044
1171.17	3.70166
1174.06	10.3234
1176.96	27.6761
1179.85	50.9911
1182.74	79.3942
1185.63	95.2906
1188.53	82.4227
1191.42	50.0405
1194.31	32.035
1197.2	22.8788
1200.1	18.8176
1202.99	24.3367
1205.88	29.4445
1208.78	29.0403
1211.67	34.0701
1214.56	44.1157
1217.45	44.9849
1220.35	52.9412
1223.24	54.3362
1226.13	53.2231
1229.03	55.4021
1231.92	56.0077
1234.81	47.4789
1237.7	42.9976
1240.6	34.7991
1243.49	36.9996
1246.38	39.656
1249.27	39.9166
1252.17	33.0826
1255.06	25.0425
1257.95	23.7947
1260.84	11.0259
1263.74	12.3097
1266.63	3.0437
1269.52	9.18555
1272.41	9.76257
1275.31	7.4176
1278.2	0.529175
1281.09	4.70532
1283.99	5.27954
1286.88	12.5483
1289.77	3.34656
1292.66	10.671
1295.56	3.3706
1298.45	0.238281
1301.34	2.39185
