Measurement: Raman, 780 nm, unoriented, Raman Data Processed
Mineral: Wardite
Rruff sample: R050643
Ideal chemistry: NaAl_3_(PO_4_)_2_(OH)_4_2H_2_O
Locality: Big Fish River, Yukon Territory, Canada
Source: Rock Currier
Description: Tan bipyramidal pseudo-octahedral crystals
Measured chemistry: (Na_0.93_[box]_0.05_Ca_0.02_)_Σ=1_(Al_2.97_Fe^3+^_0.03_)_Σ=3_(P_1.00_O_4_)_2_((OH)_3.88_F_0.12_)_Σ=4_·2H_2_O
Raman shift (cm-1)	intensity
116.131	1.13568
119.506	34.0673
122.881	81.0785
126.256	16.5907
129.631	14.1686
133.005	56.5589
136.38	103.286
139.755	43.7732
143.13	30.1811
146.505	0.504608
149.879	3.59726
153.254	5.37692
156.629	6.01291
160.004	29.5421
163.379	51.7293
166.753	101.251
170.128	186.382
173.503	307.547
176.878	617.881
180.253	747.874
183.627	222.526
187.002	75.7872
190.377	41.4181
193.752	32.012
197.127	14.848
200.502	14.4001
203.876	22.5594
207.251	30.6869
210.626	49.2297
214.001	93.068
217.376	180.594
220.75	386.147
224.125	435.984
227.5	224.103
230.875	216.721
234.25	250.559
237.625	163.938
240.999	94.4734
244.374	67.1688
247.749	71.035
251.124	108.232
254.499	160.412
257.873	242.518
261.248	258.044
264.623	103.698
267.998	38.5379
271.373	16.3314
274.748	6.10516
278.122	1.51004
281.497	1.00827
284.872	4.04974
288.247	4.10016
291.622	3.57385
294.996	1.95633
298.371	1.57166
301.746	1.07831
305.121	7.06818
308.496	11.7696
311.87	21.7741
315.245	44.8381
318.62	61.6076
321.995	98.9166
325.37	117.117
328.745	129.033
332.119	193.334
335.494	248.087
338.869	147.694
342.244	66.279
345.619	29.7712
348.993	22.7948
352.368	18.2812
355.743	21.4149
359.118	13.1578
362.493	17.1055
365.868	14.9036
369.242	0.611267
372.617	6.25372
375.992	1.21301
379.367	13.5673
382.741	32.299
386.116	75.6795
389.491	122.258
392.866	154.233
396.241	188.63
399.616	224.816
402.99	210.56
406.365	121.316
409.74	59.1055
413.115	24.432
416.49	10.5122
419.865	5.7186
423.239	4.41226
426.614	2.82153
429.989	6.43231
433.364	11.6983
436.739	18.2889
440.113	22.3096
443.488	18.4137
446.863	10.1807
450.238	5.0943
453.613	9.53305
456.988	17.9684
460.362	23.7688
463.737	27.453
467.112	39.3615
470.487	58.7479
473.861	88.6914
477.236	134.822
480.611	191.434
483.986	253.059
487.361	256.193
490.736	187.131
494.11	118.497
497.485	91.8767
500.86	82.2358
504.235	90.2286
507.61	102.909
510.985	113.752
514.359	88.2273
517.734	49.8184
521.109	28.1261
524.484	11.1728
527.859	4.57703
531.233	0.336975
534.608	1.0932
537.983	3.76096
541.358	4.78183
544.733	1.93442
548.107	0.886536
551.482	1.36356
554.857	6.49271
558.232	8.88477
561.607	11.5316
564.981	8.50259
568.356	6.90311
571.731	5.92871
575.106	6.42352
578.481	10.0299
581.856	13.0368
585.23	23.3584
588.605	30.7564
591.98	29.9889
595.355	14.7751
598.73	7.3999
602.105	5.88922
605.479	8.23932
608.854	8.37344
612.229	15.338
615.604	23.8226
618.979	37.1731
622.353	35.1673
625.728	28.2345
629.103	23.8119
632.478	15.0935
635.853	9.85477
639.227	21.8882
642.602	9.75305
645.977	13.4228
649.352	20.8983
652.727	33.3699
656.101	49.9351
659.476	69.3098
662.851	85.2344
666.226	88.2776
669.601	72.8408
672.976	47.7704
676.35	30.2946
679.725	18.0361
683.1	8.89258
686.475	7.83618
689.85	2.76578
693.225	4.64267
696.599	2.4443
699.974	4.58221
703.349	6.8194
706.724	5.76883
710.098	9.23694
713.473	10.9778
716.848	10.0352
720.223	11.9544
723.598	8.69809
726.973	3.91086
730.347	1.19165
733.722	2.83603
737.097	3.87296
740.472	0.495056
743.847	1.02838
747.221	2.30045
750.596	1.65524
753.971	1.3335
757.346	0.775879
760.721	2.74286
764.096	0.557983
767.47	3.55399
770.845	3.34183
774.22	6.09955
777.595	4.71905
780.97	2.77338
784.345	2.00635
787.719	3.36563
791.094	4.38348
794.469	5.90939
797.844	6.3111
801.218	8.30737
804.593	7.82812
807.968	11.5567
811.343	9.91986
814.718	11.3567
818.093	11.8911
821.467	12.5596
824.842	13.3385
828.217	11.2625
831.592	9.43024
834.967	12.4933
838.341	9.87781
841.716	10.4484
845.091	7.57565
848.466	5.5108
851.841	5.73587
855.216	5.49823
858.59	4.88663
861.965	5.83176
865.34	7.04739
868.715	11.8453
872.09	14.1496
875.464	16.2795
878.839	19.2211
882.214	20.678
885.589	17.5971
888.964	20.6755
892.338	20.6908
895.713	17.8156
899.088	17.4036
902.463	15.2859
905.838	13.6283
909.213	10.7399
912.587	11.5963
915.962	7.85797
919.337	6.50735
922.712	2.00265
926.087	4.57373
929.462	3.84174
932.836	3.44348
936.211	2.45602
939.586	0.340668
942.961	0.56076
946.336	0.139496
949.71	3.69275
953.085	1.4736
956.46	3.16574
959.835	0.057526
963.21	1.28073
966.584	5.5065
969.959	12.0422
973.334	21.0809
976.709	32.9082
980.084	59.0131
983.458	103.716
986.833	174.118
990.208	288.569
993.583	400.46
996.958	359.689
1000.33	227.235
1003.71	130.389
1007.08	80.74
1010.46	52.0211
1013.83	39.4372
1017.21	31.4313
1020.58	26.0231
1023.96	26.2616
1027.33	33.8107
1030.71	50.5502
1034.08	76.4121
1037.46	121.722
1040.83	191.201
1044.2	301.827
1047.58	457.009
1050.95	533.982
1054.33	389.465
1057.7	212.321
1061.08	107.091
1064.45	59.1828
1067.83	34.8374
1071.2	31.3534
1074.58	36.7297
1077.95	51.1107
1081.33	60.2412
1084.7	43.8175
1088.08	18.7822
1091.45	5.39401
1094.83	3.00543
1098.2	1.90982
1101.58	0.223816
1104.95	0.642731
1108.33	4.84436
1111.7	8.31155
1115.08	7.42786
1118.45	6.08911
1121.83	3.11603
1125.2	8.64786
1128.58	12.6234
1131.95	12.8492
1135.33	15.6674
1138.7	21.5293
1142.08	25.2646
1145.45	20.8925
1148.82	16.9954
1152.2	10.0855
1155.57	2.0853
1158.95	0.242371
1162.32	1.43408
1165.7	1.28982
1169.07	0.378326
1172.45	0.509399
1175.82	2.85538
1179.2	8.98041
1182.57	13.6478
1185.95	14.679
1189.32	12.9455
1192.7	8.72063
1196.07	3.70174
1199.45	3.86733
1202.82	4.16455
1206.2	6.52595
1209.57	4.92129
1212.95	9.431
1216.32	7.18494
1219.7	9.59888
1223.07	10.9965
1226.44	8.25806
1229.82	8.41399
1233.19	7.92386
1236.57	8.54488
1239.94	8.92268
1243.32	7.39323
1246.69	8.32143
1250.07	7.13113
1253.44	8.10831
1256.82	3.97389
1260.19	4.43042
1263.57	2.12697
1266.94	2.69121
1270.32	0.970596
1273.69	1.06619
1277.07	0.071747
1280.44	4.32336
1283.82	1.44238
