Measurement: Raman, 780 nm, unoriented, Raman Data Processed
Mineral: Warikahnite
Rruff sample: R080105
Ideal chemistry: Zn^2+^_3_(As^5+^O_4_)_2_2H_2_O
Locality: O stope, 31st level, Tsumeb, Namibia
Source: William W. Pinch
Description: Yellow flattened striated crystal fragments
Measured chemistry: (Zn_2.87_Fe_0.04_Mn_0.03_Cd_0.02_)(AsO_4_)_2_.2H_2_O
Raman shift (cm-1)	intensity
125.79	0
129.164	3.20581
132.539	43.782
135.914	94.5748
139.289	165.626
142.664	246.158
146.038	224.136
149.413	146.726
152.788	64.0712
156.163	92.3148
159.538	179.808
162.912	165.461
166.287	64.6302
169.662	6.38892
173.037	1.18079
176.412	56.0169
179.786	101.376
183.161	118.082
186.536	179.681
189.911	229.004
193.286	210.646
196.661	73.7797
200.035	33.1091
203.41	41.6434
206.785	49.4156
210.16	71.7656
213.535	115.527
216.91	182.701
220.284	187.621
223.659	133.852
227.034	63.1071
230.409	24.4958
233.784	23.0529
237.158	17.941
240.533	0.913757
243.908	9.49146
247.283	3.71429
250.658	22.6761
254.032	57.5309
257.407	83.6346
260.782	103.621
264.157	122.982
267.532	129.161
270.907	132.3
274.281	134.878
277.656	126.841
281.031	118.393
284.406	120.474
287.781	115.783
291.156	82.0001
294.53	39.8954
297.905	24.6324
301.28	26.7127
304.655	44.4569
308.03	69.6691
311.404	106.624
314.779	157.446
318.154	191.78
321.529	162.714
324.904	109.94
328.279	69.7492
331.653	48.0707
335.028	22.4802
338.403	0.322754
341.778	7.43353
345.152	2.16724
348.527	1.01508
351.902	8.08551
355.277	10.5073
358.652	6.29132
362.027	2.72046
365.401	3.1214
368.776	17.8534
372.151	44.119
375.526	63.2946
378.901	80.4622
382.276	88.9763
385.65	87.0298
389.025	75.3466
392.4	61.908
395.775	47.1002
399.15	35.6131
402.524	21.7547
405.899	16.9933
409.274	14.7878
412.649	22.6854
416.024	29.7157
419.399	48.7785
422.773	76.6397
426.148	92.5089
429.523	105.415
432.898	114.793
436.273	113.82
439.647	100.549
443.022	75.7176
446.397	40.7338
449.772	14.0048
453.147	1.1286
456.522	2.81891
459.896	5.7226
463.271	17.4498
466.646	36.405
470.021	57.6322
473.396	86.1622
476.77	124.225
480.145	158.018
483.52	185.716
486.895	214.198
490.27	231.43
493.644	226.874
497.019	215.59
500.394	202.261
503.769	191.301
507.144	171.379
510.519	142.229
513.893	111.028
517.268	75.6511
520.643	49.4123
524.018	32.0143
527.393	17.8284
530.768	11.2149
534.142	3.6684
537.517	0.306763
540.892	4.94733
544.267	3.77576
547.641	1.54071
551.016	1.13513
554.391	1.08893
557.766	0.415222
561.141	2.6911
564.516	4.00671
567.89	4.60446
571.265	7.45419
574.64	8.61456
578.015	10.6759
581.39	11.3727
584.764	13.759
588.139	13.3648
591.514	16.3756
594.889	17.1624
598.264	16.6129
601.639	17.011
605.013	16.517
608.388	13.5805
611.763	15.7884
615.138	15.62
618.513	18.9499
621.888	17.7019
625.262	16.4515
628.637	16.9588
632.012	17.463
635.387	18.2056
638.761	17.2832
642.136	22.4083
645.511	22.2263
648.886	21.6378
652.261	25.1909
655.636	26.1314
659.01	28.2438
662.385	28.8719
665.76	31.2675
669.135	32.0273
672.51	33.8642
675.885	35.3768
679.259	39.1016
682.634	45.7165
686.009	49.37
689.384	52.0796
692.759	55.6366
696.133	54.6627
699.508	53.3439
702.883	49.3408
706.258	47.3574
709.633	44.0347
713.008	37.3962
716.382	34.0978
719.757	26.7441
723.132	20.6799
726.507	13.2614
729.882	9.56824
733.256	3.66547
736.631	3.21063
740.006	11.0873
743.381	12.5323
746.756	14.6183
750.13	12.6827
753.505	12.746
756.88	4.62341
760.255	3.14832
763.63	13.7061
767.005	20.0959
770.379	21.0418
773.754	18.4426
777.129	20.258
780.504	26.2873
783.879	38.5686
787.254	59.3655
790.628	103.171
794.003	176.025
797.378	246.856
800.753	254.505
804.128	237.963
807.502	272.643
810.877	335.529
814.252	400.682
817.627	509.258
821.002	701.171
824.376	972.263
827.751	1273.62
831.126	1539.89
834.501	1621.77
837.876	1291.69
841.25	920.451
844.625	702.628
848	592.279
851.375	549.222
854.75	566.257
858.125	670.73
861.5	849.918
864.874	1097.98
868.249	1310.18
871.624	1199.96
874.999	918.161
878.374	717.191
881.748	623.516
885.123	610.516
888.498	665.436
891.873	758.74
895.248	775.46
898.622	604.262
901.997	402.615
905.372	275.173
908.747	169.845
912.122	75.7447
915.496	19.8906
918.871	6.42493
922.246	13.9006
925.621	17.6214
928.996	12.7023
932.37	10.7438
935.745	6.50809
939.12	2.39233
942.495	0.041565
945.87	5.20453
949.245	12.4349
952.619	14.2575
955.994	19.6849
959.369	25.9833
962.744	27.1233
966.119	31.5123
969.494	37.749
972.868	40.8799
976.243	44.0442
979.618	42.1371
982.993	42.2199
986.368	40.2924
989.742	36.9755
993.117	35.0593
996.492	33.2608
999.867	33.2921
1003.24	28.6392
1006.62	26.9858
1009.99	24.4632
1013.37	24.8207
1016.74	21.6123
1020.12	21.651
1023.49	20.0847
1026.87	19.2131
1030.24	17.5006
1033.62	18.7005
1036.99	15.3307
1040.37	14.9681
1043.74	14.2543
1047.11	13.1829
1050.49	12.1372
1053.86	8.79858
1057.24	8.57614
1060.61	9.86795
1063.99	6.6449
1067.36	5.56656
1070.74	5.59955
1074.11	5.76236
1077.49	4.82098
1080.86	3.55594
1084.24	3.77316
1087.61	4.13614
1090.99	4.10092
1094.36	3.62909
1097.74	3.2291
1101.11	2.1059
1104.49	0.031097
1107.86	0.364685
1111.24	0.489838
1114.61	1.55875
1117.98	0.411926
1121.36	0.038086
1124.73	0.925812
1128.11	0.488342
1131.48	0.767303
1134.86	1.94663
1138.23	0.87149
1141.61	1.18512
1144.98	0.718567
1148.36	1.30206
1151.73	0.549805
1155.11	1.12421
1158.48	0.894623
1161.86	1.94482
1165.23	1.67499
1168.61	1.22842
1171.98	1.323
1175.36	1.87173
1178.73	1.25845
1182.11	2.10196
1185.48	0.899261
1188.86	2.42304
1192.23	1.79153
1195.61	1.28317
1198.98	0.380646
1202.36	1.1297
1205.73	1.70914
1209.11	1.23526
1212.48	1.30774
1215.86	0.582703
1219.23	1.08359
1222.61	1.72913
1225.98	0.470184
1229.35	0.123993
1232.73	0.238708
1236.1	1.4866
1239.48	1.64267
1242.85	0.81485
1246.23	0.792969
1249.6	2.62921
1252.98	0.7901
1256.35	1.12228
1259.73	0.80188
1263.1	1.67523
1266.48	1.07696
1269.85	2.39865
1273.23	2.64459
1276.6	2.91382
1279.98	2.73633
1283.35	3.36243
