Measurement: Raman, 532 nm, unoriented, Raman Data Processed
Mineral: Warikahnite
Rruff sample: R080105
Ideal chemistry: Zn^2+^_3_(As^5+^O_4_)_2_2H_2_O
Locality: O stope, 31st level, Tsumeb, Namibia
Source: William W. Pinch
Description: Yellow flattened striated crystal fragments
Measured chemistry: (Zn_2.87_Fe_0.04_Mn_0.03_Cd_0.02_)(AsO_4_)_2_.2H_2_O
Raman shift (cm-1)	intensity
126.584	0
129.959	0.184021
133.333	106.828
136.708	199.07
140.083	430.876
143.458	555.162
146.833	486.09
150.208	471.842
153.582	230.706
156.957	266.077
160.332	382.039
163.707	289.053
167.082	104.501
170.456	3.47925
173.831	28.5914
177.206	132.911
180.581	148.718
183.956	133.672
187.331	158.152
190.705	148.282
194.08	58.3393
197.455	30.6646
200.83	13.3225
204.205	34.1824
207.579	72.8727
210.954	83.1248
214.329	96.5312
217.704	130.212
221.079	124.964
224.453	86.6129
227.828	51.3892
231.203	73.9076
234.578	132.51
237.953	133.58
241.328	76.7604
244.702	43.0828
248.077	27.6482
251.452	27.4023
254.827	45.2807
258.202	49.1596
261.577	78.9633
264.951	111.002
268.326	149.122
271.701	187.063
275.076	221.543
278.451	231.234
281.825	226.735
285.2	193.112
288.575	124.576
291.95	32.295
295.325	21.793
298.7	16.058
302.074	43.7702
305.449	104.053
308.824	162.094
312.199	248.007
315.574	341.56
318.948	368.829
322.323	291.638
325.698	224.879
329.073	222.033
332.448	214.387
335.822	155.666
339.197	86.1539
342.572	57.58
345.947	77.1801
349.322	127.876
352.697	177.234
356.071	177.664
359.446	101.339
362.821	15.4526
366.196	16.114
369.571	4.8642
372.945	52.2257
376.32	101.263
379.695	139.824
383.07	169.651
386.445	165.691
389.82	132.093
393.194	96.1726
396.569	65.9537
399.944	46.5488
403.319	45.5871
406.694	49.1941
410.068	62.3931
413.443	70.4339
416.818	89.3342
420.193	136.774
423.568	196.797
426.942	249.744
430.317	280.995
433.692	299.876
437.067	304.645
440.442	287.587
443.817	225.817
447.191	134.243
450.566	51.7537
453.941	0.359497
457.316	13.9767
460.691	3.03918
464.065	19.6855
467.44	51.6128
470.815	93.8675
474.19	143.172
477.565	190.426
480.94	239.044
484.314	284.336
487.689	325.286
491.064	349.424
494.439	353.83
497.814	344.038
501.188	333.959
504.563	313.26
507.938	273.297
511.313	217.554
514.688	163.913
518.063	107.014
521.437	69.5693
524.812	43.9896
528.187	23.6235
531.562	10.2762
534.937	1.56522
538.312	4.59433
541.686	3.42572
545.061	7.97949
548.436	3.31497
551.811	0.233978
555.186	2.93011
558.56	4.44443
561.935	5.46933
565.31	10.5695
568.685	12.5651
572.06	16.8683
575.434	21.3635
578.809	26.0249
582.184	29.583
585.559	33.8486
588.934	37.1687
592.308	38.6371
595.683	41.5733
599.058	40.8542
602.433	41.0931
605.808	39.2966
609.183	42.9149
612.557	43.8893
615.932	44.1566
619.307	45.1348
622.682	45.4466
626.057	47.0505
629.432	47.3298
632.806	47.955
636.181	51.7793
639.556	50.8899
642.931	53.877
646.306	57.1983
649.68	59.2484
653.055	62.0377
656.43	67.8432
659.805	71.1009
663.18	76.4561
666.554	79.8348
669.929	82.1296
673.304	85.3643
676.679	88.4608
680.054	89.8278
683.428	94.5557
686.803	100.09
690.178	109.309
693.553	116.303
696.928	121.474
700.303	124.425
703.677	123.908
707.052	121.291
710.427	113.853
713.802	105.702
717.177	96.1771
720.552	88.2686
723.926	77.6968
727.301	57.2184
730.676	40.1305
734.051	25.0303
737.426	7.6904
740.8	5.61267
744.175	18.2377
747.55	24.4773
750.925	27.0509
754.3	27.0942
757.674	20.3632
761.049	14.1572
764.424	2.8775
767.799	0.431763
771.174	3.66943
774.549	11.2321
777.923	12.3379
781.298	26.2425
784.673	58.8833
788.048	120.714
791.423	211.251
794.798	344.128
798.172	426.904
801.547	405.017
804.922	383.199
808.297	468.605
811.672	645.655
815.046	904.373
818.421	1354.47
821.796	2002.28
825.171	2668.94
828.546	3045.29
831.92	3113.05
835.295	2862.26
838.67	2233.88
842.045	1698.46
845.42	1398.95
848.795	1301.82
852.169	1384.03
855.544	1698.25
858.919	2171.18
862.294	2716.45
865.669	3323.6
869.043	3622.27
872.418	3288.92
875.793	2845.19
879.168	2714.38
882.543	2918.26
885.918	3379.11
889.292	3975.57
892.667	4421.11
896.042	4014.44
899.417	2728.88
902.792	1576.61
906.166	889.125
909.541	475.365
912.916	226.274
916.291	96.2498
919.666	27.5076
923.04	5.30286
926.415	21.5134
929.79	25.744
933.165	23.9678
936.54	22.0004
939.915	18.1745
943.289	12.4062
946.664	9.07913
950.039	3.28247
953.414	7.09567
956.789	18.6513
960.163	28.6997
963.538	37.398
966.913	49.1869
970.288	58.4335
973.663	65.8133
977.038	74.9543
980.412	84.2897
983.787	92.1258
987.162	97.7545
990.537	100.176
993.912	103.85
997.287	99.8763
1000.66	96.5618
1004.04	93.5677
1007.41	85.3979
1010.79	82.5073
1014.16	79.8151
1017.53	77.0811
1020.91	73.3046
1024.29	71.1741
1027.66	66.312
1031.04	64.6642
1034.41	59.6092
1037.78	55.9006
1041.16	51.7755
1044.53	48.8655
1047.91	47.6558
1051.28	40.8325
1054.66	37.6175
1058.03	33.749
1061.41	30.2105
1064.78	27.395
1068.16	22.7958
1071.53	20.4347
1074.91	17.991
1078.28	18.0932
1081.66	17.5198
1085.03	15.4129
1088.41	13.4911
1091.78	8.55968
1095.16	7.76868
1098.53	7.29208
1101.91	4.49103
1105.28	5.70795
1108.65	2.48711
1112.03	2.56099
1115.4	3.86781
1118.78	2.12068
1122.15	0.30011
1125.53	1.86906
1128.9	1.62813
1132.28	0.451035
1135.65	0.798874
1139.03	0.102661
1142.4	0.338318
1145.78	1.14282
1149.15	0.018158
1152.53	0.226959
1155.9	2.16595
1159.28	0.92717
1162.65	0.245483
1166.03	1.20866
1169.4	0.308838
1172.78	2.06595
1176.15	0.915298
1179.53	1.21239
1182.9	0.781952
1186.28	0.555786
1189.65	1.3296
1193.03	0.8694
1196.4	0.916397
1199.78	0.802979
1203.15	0.018753
1206.53	2.08258
1209.9	1.729
1213.28	2.0058
1216.65	1.52765
1220.02	1.57651
1223.4	0.808563
1226.77	1.38223
1230.15	0.947937
1233.52	2.58444
1236.9	1.01428
1240.27	1.47836
1243.65	0.654022
1247.02	1.79843
1250.4	1.6033
1253.77	0.542755
1257.15	0.220673
1260.52	2.32489
1263.9	1.23221
1267.27	2.03082
1270.65	0.301575
1274.02	3.52957
1277.4	0.68576
1280.77	1.27075
