Measurement: Raman, 532 nm, unoriented, Raman Data Processed
Mineral: Warwickite
Rruff sample: R120161
Ideal chemistry: (Mg,Ti,Fe,Cr,Al)_2_O(BO_3_)
Locality: South Baptiste Lake roadcut, Bancroft, Ontario, Canada
Source: Michael J. Bainbridge
Description: Black prismatic crystals
Raman shift (cm-1)	intensity
134.62	0
137.995	0.505432
141.37	7.76208
144.744	14.1046
148.119	29.6612
151.494	46.1664
154.869	63.5531
158.244	78.8401
161.619	94.8151
164.993	104.628
168.368	105.823
171.743	108.299
175.118	93.2319
178.493	86.8197
181.868	74.3326
185.242	73.5804
188.617	70.6403
191.992	65.6037
195.367	61.0556
198.742	52.7527
202.116	49.1053
205.491	37.9973
208.866	28.2474
212.241	22.9769
215.616	18.2564
218.99	16.4014
222.365	13.6296
225.74	9.04273
229.115	6.65949
232.49	1.96887
235.865	1.45038
239.239	1.09485
242.614	3.20758
245.989	0.954102
249.364	2.80402
252.739	3.2713
256.113	0.718262
259.488	1.48224
262.863	4.46484
266.238	7.34345
269.613	4.29388
272.988	7.10046
276.362	4.89777
279.737	3.74799
283.112	0.329956
286.487	5.06616
289.862	1.10754
293.236	2.51825
296.611	1.8703
299.986	2.86255
303.361	3.20453
306.736	1.77002
310.111	5.71246
313.485	7.39673
316.86	8.40088
320.235	8.53516
323.61	10.3522
326.985	15.9761
330.359	13.5653
333.734	17.2408
337.109	20.9123
340.484	24.8428
343.859	27.4489
347.233	32.6629
350.608	27.6956
353.983	28.5619
357.358	23.1353
360.733	22.7708
364.108	19.7042
367.482	18.8612
370.857	13.7526
374.232	19.4868
377.607	17.3843
380.982	15.4491
384.356	13.9168
387.731	18.3631
391.106	17.8437
394.481	14.0987
397.856	22.5316
401.231	23.1895
404.605	23.3511
407.98	22.4532
411.355	19.2356
414.73	22.4394
418.105	22.8391
421.479	21.1877
424.854	18.2017
428.229	17.0715
431.604	10.2843
434.979	7.82681
438.354	8.96133
441.728	4.9819
445.103	0.606476
448.478	1.75098
451.853	1.34918
455.228	2.64499
458.603	0.276184
461.977	0.400452
465.352	4.80527
468.727	9.5314
472.102	8.94421
475.477	11.7963
478.851	16.0272
482.226	21.6123
485.601	26.7582
488.976	29.4964
492.351	37.8965
495.726	37.2234
499.1	39.4283
502.475	46.0955
505.85	50.3596
509.225	57.1373
512.6	57.9726
515.974	61.3136
519.349	65.1324
522.724	70.7456
526.099	70.5166
529.474	67.5984
532.848	63.5498
536.223	60.7653
539.598	51.8344
542.973	46.0086
546.348	39.3056
549.722	34.8677
553.097	22.3028
556.472	16.4736
559.847	6.73816
563.222	4.39166
566.597	3.7374
569.971	0.024719
573.346	0.352386
576.721	1.7005
580.096	0.238129
583.471	0.200012
586.846	2.96146
590.22	3.82028
593.595	4.651
596.97	7.79877
600.345	11.2106
603.72	10.0477
607.094	14.5666
610.469	16.8442
613.844	19.8869
617.219	22.611
620.594	21.539
623.968	24.7147
627.343	28.696
630.718	27.2039
634.093	24.5563
637.468	20.2111
640.843	21.7562
644.217	17.0082
647.592	18.9328
650.967	14.4774
654.342	11.1341
657.717	5.25598
661.091	2.69714
664.466	0.88147
667.841	2.68906
671.216	0.509521
674.591	3.73001
677.966	2.30698
681.34	2.56879
684.715	0.335236
688.09	3.24011
691.465	10.8675
694.84	14.9814
698.215	25.6927
701.589	34.5504
704.964	49.135
708.339	69.874
711.714	95.1168
715.089	120.406
718.463	149.48
721.838	173.767
725.213	203.582
728.588	228.225
731.963	250.62
735.337	264.491
738.712	272.385
742.087	271.336
745.462	260.995
748.837	250.027
752.212	237.192
755.586	215.54
758.961	192.825
762.336	177.516
765.711	160.955
769.086	149.261
772.46	132.019
775.835	117.828
779.21	104.336
782.585	93.5944
785.96	84.1598
789.335	69.9862
792.709	56.8528
796.084	43.4451
799.459	32.098
802.834	25.4798
806.209	16.9318
809.583	10.0967
812.958	6.05252
816.333	1.5325
819.708	0.138092
823.083	0.458832
826.457	2.18491
829.832	1.93591
833.207	0.833282
836.582	2.41037
839.957	1.4519
843.332	1.80743
846.706	4.22214
850.081	5.45773
853.456	3.42398
856.831	3.53
860.206	4.38284
863.581	7.31061
866.955	7.69659
870.33	11.5799
873.705	7.84607
877.08	12.2592
880.455	11.2188
883.829	9.97064
887.204	7.31726
890.579	9.16513
893.954	9.27847
897.329	6.20078
900.703	6.93579
904.078	6.71765
907.453	7.07715
910.828	7.69623
914.203	6.83362
917.578	8.52554
920.952	9.10513
924.327	8.18137
927.702	12.5991
931.077	8.83164
934.452	14.2423
937.827	14.6005
941.201	14.2458
944.576	16.8368
947.951	21.1278
951.326	23.5631
954.701	26.5078
958.075	27.5036
961.45	30.8721
964.825	32.9973
968.2	32.6337
971.575	30.7839
974.949	24.2795
978.324	16.5689
981.699	10.8098
985.074	6.15671
988.449	5.69824
991.823	4.10742
995.198	5.30844
998.573	0.122681
1001.95	1.49948
1005.32	0.822998
1008.7	1.81815
1012.07	2.75024
1015.45	0.990784
1018.82	0.548737
1022.2	0.401642
1025.57	0.853851
1028.95	2.54504
1032.32	2.30847
1035.7	1.40338
1039.07	0.389648
1042.45	1.56107
1045.82	2.79089
1049.19	0.363586
1052.57	2.33408
1055.94	0.912872
1059.32	3.36609
1062.69	1.02618
1066.07	4.76166
1069.44	0.496063
1072.82	2.01242
1076.19	0.939056
1079.57	3.08347
1082.94	3.40994
1086.32	4.89978
1089.69	4.12561
1093.07	4.98929
1096.44	5.85263
1099.82	4.22549
1103.19	1.21139
1106.57	0.63916
1109.94	2.11664
1113.32	0.827972
1116.69	0.161377
1120.07	0.250519
1123.44	1.67203
1126.82	0.523712
1130.19	3.30731
1133.57	2.6077
1136.94	2.79108
1140.32	4.34347
1143.69	8.95398
1147.07	9.63214
1150.44	10.6632
1153.82	12.1387
1157.19	13.9877
1160.56	12.428
1163.94	11.9508
1167.31	11.9201
1170.69	12.0018
1174.06	11.3358
1177.44	10.5682
1180.81	11.8161
1184.19	11.9162
1187.56	11.7804
1190.94	11.8053
1194.31	11.3922
1197.69	12.2316
1201.06	10.2629
1204.44	9.73895
1207.81	9.04166
1211.19	9.58218
1214.56	8.0787
1217.94	10.1936
1221.31	9.78317
1224.69	8.90646
1228.06	6.74991
1231.44	8.23639
1234.81	8.05756
1238.18	6.16675
1241.56	9.48587
1244.93	6.05936
1248.31	5.49393
1251.68	7.99469
1255.06	5.29138
1258.43	4.09161
1261.81	3.04193
1265.18	4.63507
1268.56	4.69074
1271.93	0.834869
1275.31	2.89566
1278.68	2.2413
1282.06	3.70724
1285.43	2.97372
1288.81	1.08438
1292.18	1.50794
1295.56	3.86963
1298.93	0.336731
