Measurement: Raman, 780 nm, unoriented, Raman Data Processed
Mineral: Warwickite
Rruff sample: R120161
Ideal chemistry: (Mg,Ti,Fe,Cr,Al)_2_O(BO_3_)
Locality: South Baptiste Lake roadcut, Bancroft, Ontario, Canada
Source: Michael J. Bainbridge
Description: Black prismatic crystals
Raman shift (cm-1)	intensity
135.915	0
138.807	0.196106
141.7	4.08179
144.593	13.3273
147.485	24.957
150.378	43.1616
153.271	56.5784
156.163	69.4991
159.056	85.4987
161.949	98.6168
164.842	103.424
167.734	107.744
170.627	110.272
173.52	111.214
176.412	107.486
179.305	106.935
182.198	102.354
185.09	96.4893
187.983	93.5825
190.876	84.8341
193.769	77.868
196.661	71.0194
199.554	67.7459
202.447	62.1169
205.339	54.7668
208.232	51.6155
211.125	49.0967
214.018	47.1997
216.91	46.0269
219.803	43.863
222.696	37.509
225.588	37.6553
228.481	29.2572
231.374	25.4721
234.266	16.2313
237.159	11.2347
240.052	6.31958
242.945	3.83551
245.837	0.087708
248.73	2.46381
251.623	0.352112
254.515	0.448914
257.408	1.61731
260.301	0.513184
263.193	0.778259
266.086	4.06915
268.979	2.10992
271.872	0.819763
274.764	1.55859
277.657	1.3667
280.55	3.94556
283.442	1.91327
286.335	1.5517
289.228	4.26929
292.12	5.01678
295.013	7.10602
297.906	8.98004
300.798	8.76794
303.691	6.19153
306.584	7.08472
309.476	7.21014
312.369	4.02484
315.262	6.19623
318.155	2.7403
321.047	2.97821
323.94	5.87488
326.833	4.49628
329.725	4.93915
332.618	2.34918
335.511	8.14862
338.404	8.90582
341.296	11.9582
344.189	6.54504
347.082	8.61493
349.974	6.46582
352.867	3.52179
355.76	4.32141
358.652	1.276
361.545	0.432617
364.438	0.239563
367.33	1.37237
370.223	1.74078
373.116	4.19537
376.009	4.82965
378.901	4.22339
381.794	7.58368
384.687	7.30249
387.579	7.2937
390.472	11.6885
393.365	14.2772
396.257	11.1647
399.15	13.7854
402.043	15.4962
404.935	17.6982
407.828	16.1222
410.721	14.8946
413.614	17.432
416.506	15.4028
419.399	17.3482
422.292	16.155
425.184	13.6967
428.077	10.7316
430.97	10.966
433.863	5.84949
436.755	3.47479
439.648	2.19086
442.541	0.78595
445.433	0.746826
448.326	2.24426
451.219	0.525146
454.111	2.37653
457.004	0.572693
459.897	0.740784
462.789	2.50678
465.682	1.73541
468.575	5.44763
471.468	8.64368
474.36	10.015
477.253	12.9112
480.146	15.6632
483.038	19.3654
485.931	25.2564
488.824	29.5931
491.716	31.658
494.609	35.7809
497.502	38.9696
500.395	44.992
503.287	52.3762
506.18	54.9753
509.073	62.3372
511.965	67.1193
514.858	73.5121
517.751	75.0029
520.644	76.9359
523.536	76.3576
526.429	76.8607
529.322	76.5051
532.214	69.6267
535.107	64.8812
538	59.0824
540.892	53.5071
543.785	43.6825
546.678	35.9984
549.57	30.0067
552.463	24.2864
555.356	16.8229
558.249	11.3208
561.141	7.3176
564.034	4.258
566.927	2.91025
569.819	1.30347
572.712	1.73175
575.605	2.13992
578.497	0.525696
581.39	0.494476
584.283	0.702942
587.176	1.53424
590.068	1.31122
592.961	1.38376
595.854	0.763855
598.746	4.17191
601.639	6.48203
604.532	7.93695
607.424	5.6651
610.317	10.3227
613.21	9.38876
616.102	12.2536
618.995	10.1473
621.888	11.8
624.781	9.66815
627.673	10.5559
630.566	8.09418
633.459	7.72201
636.351	7.25348
639.244	9.49683
642.137	2.79428
645.029	3.87964
647.922	2.77856
650.815	0.582123
653.708	0.276001
656.6	1.0524
659.493	0.341675
662.386	1.59454
665.278	1.60812
668.171	0.369293
671.064	0.887817
673.957	0.072235
676.849	0.836304
679.742	3.75073
682.635	4.56207
685.527	10.2181
688.42	16.9302
691.313	28.0296
694.205	35.5097
697.098	45.6144
699.991	59.5479
702.884	77.862
705.776	95.93
708.669	116.935
711.562	139.97
714.454	163.511
717.347	184.124
720.24	205.01
723.132	225.053
726.025	240.347
728.918	252.486
731.81	257.782
734.703	260.933
737.596	255.678
740.489	243.801
743.381	233.596
746.274	220
749.167	201.908
752.059	185.083
754.952	171.529
757.845	155.213
760.737	140.32
763.63	129.6
766.523	120.592
769.415	113.118
772.308	104.055
775.201	96.3036
778.094	88.3561
780.986	77.688
783.879	69.9283
786.772	61.205
789.664	53.507
792.557	43.5054
795.45	33.1706
798.342	27.6411
801.235	19.9853
804.128	14.4061
807.021	10.7774
809.913	3.5853
812.806	1.2095
815.699	1.03903
818.591	2.71506
821.484	2.59613
824.377	1.61011
827.269	0.62207
830.162	1.43329
833.055	1.83777
835.948	0.004303
838.84	0.67691
841.733	2.60934
844.626	1.95511
847.518	4.11585
850.411	6.07996
853.304	6.81586
856.197	8.16516
859.089	9.36978
861.982	11.418
864.875	12.1102
867.767	13.4832
870.66	12.9878
873.553	12.3884
876.445	15.2546
879.338	13.635
882.231	13.4674
885.123	14.9213
888.016	11.9261
890.909	12.6864
893.802	9.40988
896.694	8.95955
899.587	9.28481
902.48	8.12695
905.372	9.06326
908.265	8.847
911.158	8.08893
914.05	7.34058
916.943	7.49974
919.836	7.80891
922.729	6.61739
925.621	7.50629
928.514	9.25139
931.407	9.03209
934.299	9.02328
937.192	11.4604
940.085	12.0939
942.977	12.6714
945.87	14.7805
948.763	16.8699
951.655	17.6252
954.548	17.2309
957.441	20.0601
960.334	19.4725
963.226	20.9245
966.119	22.0162
969.012	18.9753
971.904	15.8636
974.797	12.2634
977.69	10.7597
980.582	7.8228
983.475	4.63982
986.368	2.04884
989.261	2.44408
992.153	1.86848
995.046	0.303925
997.939	0.364044
1000.83	0.771454
1003.72	0.125992
1006.62	0.031036
1009.51	0.810532
1012.4	0.756149
1015.29	0.091064
1018.19	0.862595
1021.08	0.080292
1023.97	1.11015
1026.87	0.402908
1029.76	0.768784
1032.65	0.245239
1035.54	1.20671
1038.44	0.901596
1041.33	0.57814
1044.22	0.041412
1047.12	1.15037
1050.01	1.67259
1052.9	2.41992
1055.79	1.30121
1058.68	2.16305
1061.58	0.93103
1064.47	0.435196
1067.36	0.418625
1070.26	0.632614
1073.15	0.14679
1076.04	0.288025
1078.93	0.532501
1081.83	0.511642
1084.72	0.220551
1087.61	1.545
1090.51	0.184586
1093.4	2.49248
1096.29	1.23779
1099.18	0.10347
1102.08	1.33398
1104.97	0.589325
1107.86	0.942596
1110.75	0.730881
1113.65	0.613922
1116.54	1.48523
1119.43	1.6655
1122.33	2.70885
1125.22	3.15331
1128.11	3.71741
1131	3.1816
1133.9	6.24565
1136.79	4.17776
1139.68	5.81415
1142.57	6.1376
1145.47	6.93219
1148.36	6.78322
1151.25	7.24904
1154.14	7.27524
1157.04	8.2141
1159.93	7.77228
1162.82	7.46892
1165.71	7.90536
1168.61	8.03201
1171.5	8.96645
1174.39	8.53839
1177.29	7.99834
1180.18	7.36021
1183.07	11.3739
1185.96	8.58464
1188.86	8.86792
1191.75	8.56982
1194.64	6.87608
1197.54	7.66647
1200.43	7.80534
1203.32	7.21698
1206.21	6.94132
1209.11	6.5242
1212	5.5466
1214.89	5.16766
1217.78	4.18356
1220.68	4.10756
1223.57	3.30843
1226.46	6.05003
1229.35	3.51268
1232.25	4.61231
1235.14	3.4201
1238.03	3.23463
1240.92	0.75827
1243.82	1.87471
1246.71	3.49367
1249.6	0.84761
1252.5	0.158661
1255.39	2.34607
1258.28	1.81686
1261.17	0.789536
1264.07	1.1391
1266.96	2.36131
1269.85	1.22781
1272.74	1.17706
1275.64	0.519745
1278.53	0.984879
1281.42	1.32987
1284.32	0.038101
