Measurement: Raman, 532 nm, unoriented, Raman Data Processed
Mineral: Warwickite
Rruff sample: R050674
Ideal chemistry: (Mg,Ti,Fe,Cr,Al)_2_O(BO_3_)
Locality: Edenville, Orange County, New York, USA
Source: University of Arizona Mineral Museum
Description: Black prismatic crystals embedded in matrix
Measured chemistry: (Mg_1.23_Ti_0.39_Fe^2+^_0.17_Al_0.19_Fe^3+^_0.02_)_Î£=2_O(BO_3_) ; B not measured but estimated by difference and charge balance
Raman shift (cm-1)	intensity
147.898	0
150.79	1.09214
153.683	2.55041
156.576	4.52338
159.468	4.74332
162.361	7.45636
165.254	9.26537
168.147	10.1568
171.039	10.3419
173.932	10.8023
176.825	9.18562
179.717	8.44656
182.61	6.2737
185.503	7.15022
188.395	4.93722
191.288	5.06255
194.181	4.42005
197.073	3.17382
199.966	2.70345
202.859	2.46751
205.752	1.57553
208.644	2.14137
211.537	1.13272
214.43	0.298714
217.322	0.519165
220.215	0.422638
223.108	0.371922
226	0.047325
228.893	0.061249
231.786	0.059887
234.679	0.086124
237.571	0.231983
240.464	0.436584
243.357	0.444317
246.249	0.147041
249.142	0.280396
252.035	0.049301
254.928	0.006371
257.82	0.037815
260.713	0.212311
263.606	0.453709
266.498	0.468124
269.391	0.299015
272.284	0.550297
275.176	0.934395
278.069	0.329956
280.962	0.868446
283.854	0.30341
286.747	0.515976
289.64	0.159508
292.533	0.512325
295.425	0.015804
298.318	0.185844
301.211	0.239315
304.103	0.528851
306.996	0.324306
309.889	0.725567
312.781	0.816872
315.674	0.017307
318.567	0.513813
321.46	1.11478
324.352	0.629807
327.245	0.018795
330.138	1.20032
333.03	0.273235
335.923	0.496075
338.816	0.780392
341.709	0.777836
344.601	0.705185
347.494	0.238281
350.387	0.282814
353.279	0.497505
356.172	0.41309
359.065	0.049683
361.957	0.061352
364.85	0.040707
367.743	0.364311
370.635	0.00882
373.528	0.073822
376.421	0.207466
379.314	0.6479
382.206	1.74529
385.099	0.81498
387.992	1.15978
390.884	1.60521
393.777	1.6441
396.67	1.35723
399.562	2.18434
402.455	2.35177
405.348	3.11027
408.241	3.23673
411.133	3.56893
414.026	3.74407
416.919	4.66202
419.811	4.74698
422.704	4.06617
425.597	5.21
428.49	4.32503
431.382	4.18956
434.275	4.439
437.168	4.33243
440.06	3.34868
442.953	3.02731
445.846	2.49961
448.738	2.21463
451.631	0.920296
454.524	0.509007
457.416	0.383057
460.309	0.303848
463.202	0.214581
466.095	0.167236
468.987	0.268677
471.88	0.351692
474.773	0.391144
477.665	1.87436
480.558	1.16067
483.451	2.40379
486.344	2.53062
489.236	3.07582
492.129	3.51372
495.022	4.49822
497.914	5.42765
500.807	5.63882
503.7	6.63855
506.592	7.72872
509.485	9.12236
512.378	10.3565
515.27	12.0272
518.163	13.8389
521.056	15.9953
523.949	18.396
526.841	21.0619
529.734	23.1704
532.627	23.8995
535.519	24.1453
538.412	24.1185
541.305	23.8981
544.197	21.9561
547.09	20.2758
549.983	18.6104
552.876	16.0201
555.768	12.3608
558.661	10.0193
561.554	6.81627
564.446	4.28648
567.339	2.83958
570.232	1.42556
573.125	0.064457
576.017	0.260845
578.91	0.474152
581.803	0.084869
584.695	0.166161
587.588	0.911232
590.481	0.872372
593.373	0.446369
596.266	1.28934
599.159	1.34841
602.052	0.878635
604.944	1.65542
607.837	0.843269
610.73	1.52045
613.622	1.51311
616.515	1.35733
619.408	1.88805
622.3	1.3272
625.193	1.73439
628.086	1.48281
630.979	1.45477
633.871	2.10686
636.764	1.50638
639.657	1.32814
642.549	1.49165
645.442	1.22655
648.335	2.00034
651.227	1.40417
654.12	1.65926
657.013	0.161743
659.905	1.15558
662.798	0.816715
665.691	0.038853
668.584	0.054874
671.476	0.472332
674.369	0.471756
677.262	0.127945
680.154	0.310024
683.047	0.138531
685.94	0.024323
688.832	0.236496
691.725	0.162491
694.618	0.134232
697.511	0.646843
700.403	0.657013
703.296	2.13824
706.189	4.25005
709.081	5.95261
711.974	8.95551
714.867	12.6107
717.76	16.6263
720.652	21.921
723.545	27.1157
726.438	33.7176
729.33	40.0512
732.223	46.258
735.116	52.6524
738.008	56.6862
740.901	60.2766
743.794	62.4075
746.687	63.1131
749.579	65.6933
752.472	66.0214
755.365	66.3514
758.257	60.2526
761.15	50.2666
764.043	43.3156
766.935	36.3857
769.828	31.0351
772.721	28.8857
775.614	26.6619
778.506	23.5553
781.399	21.5014
784.292	19.5251
787.184	17.5334
790.077	14.809
792.97	13.1738
795.862	11.1294
798.755	8.84559
801.648	7.79445
804.54	5.55025
807.433	4.09519
810.326	2.28702
813.219	1.75634
816.111	1.31541
819.004	0.273838
821.897	0.525978
824.789	0.556767
827.682	0.658428
830.575	0.34248
833.467	0.251423
836.36	0.152538
839.253	0.168449
842.146	1.27488
845.038	0.789757
847.931	1.09853
850.824	0.93084
853.716	1.90294
856.609	1.73405
859.502	1.81638
862.394	2.27767
865.287	2.60739
868.18	2.06546
871.073	2.60008
873.965	2.42595
876.858	3.33708
879.751	2.93031
882.643	2.48191
885.536	2.2443
888.429	1.79193
891.322	2.00553
894.214	1.03087
897.107	1.60398
900	0.884113
902.892	1.39253
905.785	1.26884
908.678	1.60846
911.57	1.48765
914.463	1.48749
917.356	1.44549
920.249	1.4375
923.141	1.57261
926.034	1.11443
928.927	1.70971
931.819	1.93982
934.712	1.40885
937.605	2.14923
940.497	2.0173
943.39	1.83379
946.283	1.78535
949.176	2.28796
952.068	2.27236
954.961	2.58821
957.854	2.55383
960.746	2.66976
963.639	2.66299
966.532	2.80214
969.424	3.22282
972.317	3.30916
975.21	2.79156
978.102	1.94453
980.995	1.28711
983.888	1.36044
986.781	0.715393
989.673	0.113007
992.566	0.133568
995.459	0.019466
998.351	0.337482
1001.24	0.007942
1004.14	0.185074
1007.03	0.04974
1009.92	0.068737
1012.82	0.332569
1015.71	0.728153
1018.6	0.158409
1021.49	0.344795
1024.39	0.079388
1027.28	0.853729
1030.17	0.357937
1033.06	0.354359
1035.96	0.101162
1038.85	0.962612
1041.74	0.500084
1044.63	0.18523
1047.53	0.926861
1050.42	0.352459
1053.31	0.032101
1056.2	0.696598
1059.1	0.465294
1061.99	0.797218
1064.88	0.59568
1067.78	0.914207
1070.67	0.577263
1073.56	0.018814
1076.45	0.645184
1079.35	0.81461
1082.24	0.935772
1085.13	0.881538
1088.03	1.25998
1090.92	0.192955
1093.81	0.749641
1096.7	0.359539
1099.6	0.462555
1102.49	0.44157
1105.38	0.459721
1108.27	0.181271
1111.17	0.181065
1114.06	0.13155
1116.95	0.632412
1119.85	0.039989
1122.74	0.076553
1125.63	0.154488
1128.52	0.266552
1131.42	0.170189
1134.31	0.569714
1137.2	0.817383
1140.09	1.05298
1142.99	0.369633
1145.88	1.49974
1148.77	1.092
1151.66	1.77278
1154.56	1.93623
1157.45	1.96205
1160.34	1.78382
1163.23	2.09079
1166.13	2.33599
1169.02	2.2302
1171.91	2.4061
1174.81	2.33757
1177.7	2.85121
1180.59	2.51809
1183.48	2.30071
1186.38	2.84911
1189.27	2.57743
1192.16	2.8136
1195.06	2.0037
1197.95	2.51502
1200.84	3.23371
1203.73	3.42942
1206.63	3.29369
1209.52	2.86308
1212.41	3.38258
1215.3	2.75961
1218.2	2.50024
1221.09	2.39136
1223.98	2.802
1226.88	2.49932
1229.77	2.90897
1232.66	2.17447
1235.55	2.53967
1238.44	2.40169
1241.34	2.22156
1244.23	2.23062
1247.12	2.29874
1250.02	2.96046
1252.91	1.8923
1255.8	2.57473
1258.69	2.12044
1261.59	2.09538
1264.48	1.75554
1267.37	1.48644
1270.27	1.55013
1273.16	1.29411
1276.05	0.815411
1278.94	1.51198
1281.84	0.639336
1284.73	0.327881
1287.62	0.466038
1290.51	0.2771
1293.41	0.076447
1296.3	0.504807
1299.19	0.397572
1302.09	0.078217
