Measurement: Raman, 532 nm, unoriented, Raman Data Processed
Mineral: Wattersite
Rruff sample: R060626
Ideal chemistry: Hg^1+^_4_Hg^2+^O_2_(CrO_4_)
Locality: Clear Creek claim, San Benito County, California, USA
Source: Michael Scott
Description: Black metallic crystals associated with red cinnabar, white quartz, silver balls of liquid mercury
Raman shift (cm-1)	intensity
118.147	0
121.522	508.083
124.897	909.444
128.271	1127.2
131.646	1288.17
135.021	1792.88
138.396	1723.91
141.771	1286.06
145.145	739.772
148.52	521.006
151.895	529.332
155.27	597.818
158.645	666.27
162.02	1080.64
165.394	1371.86
168.769	1452.72
172.144	1705.98
175.519	2248.06
178.894	2778.77
182.268	3439.25
185.643	2999.01
189.018	2890.9
192.393	4805.96
195.768	5916.38
199.143	7112.45
202.517	5043.64
205.892	1732.76
209.267	437.763
212.642	44.851
216.017	138.657
219.391	83.941
222.766	12.077
226.141	43.737
229.516	141.786
232.891	257.88
236.266	293.135
239.64	196.898
243.015	251.066
246.39	206.109
249.765	210.833
253.14	85.384
256.514	21.162
259.889	20.573
263.264	28.003
266.639	67.159
270.014	55.479
273.389	62.246
276.763	55.207
280.138	100.411
283.513	97.09
286.888	132.834
290.263	139.743
293.638	212.87
297.012	186.432
300.387	144.829
303.762	193.158
307.137	273.099
310.512	209.896
313.886	188.155
317.261	148.963
320.636	110.223
324.011	59.521
327.386	83.288
330.76	44.512
334.135	43.359
337.51	10.723
340.885	14.042
344.26	14.91
347.635	68.742
351.009	40.091
354.384	31.642
357.759	7.495
361.134	8.284
364.509	37.489
367.884	207.441
371.258	276.963
374.633	274.093
378.008	388.07
381.383	426.5
384.758	583.004
388.132	636.011
391.507	870.061
394.882	985.91
398.257	1131.46
401.632	1247.78
405.007	1436.81
408.381	1727.88
411.756	2133.44
415.131	2475.83
418.506	3058.7
421.881	3395.93
425.255	3870.3
428.63	4280.19
432.005	4504.12
435.38	4515.05
438.755	4266.19
442.129	3646.94
445.504	3116.23
448.879	2567.77
452.254	2071.56
455.629	1788.22
459.004	1561.44
462.379	1196.31
465.753	998.716
469.128	830.828
472.503	711.35
475.878	511.162
479.253	348.344
482.627	291.97
486.002	257.757
489.377	149.109
492.752	119.471
496.127	134.687
499.501	13.813
502.876	32.006
506.251	7.016
509.626	31.39
513.001	16.042
516.375	59.398
519.75	38.608
523.125	23.124
526.5	33.042
529.875	33.19
533.25	4.416
536.625	2.297
539.999	16.022
543.374	50.569
546.749	69.932
550.124	79.278
553.499	178.336
556.873	104.309
560.248	66.656
563.623	69.974
566.998	82.853
570.373	104.403
573.747	39.126
577.122	47.908
580.497	75.233
583.872	141.061
587.247	80.253
590.622	44.764
593.996	90.537
597.371	50.556
600.746	19.105
604.121	119.897
607.496	152.712
610.87	36.13
614.245	18.73
617.62	61.333
620.995	88.091
624.37	175.342
627.745	199.278
631.119	290.866
634.494	307.894
637.869	201.946
641.244	102.789
644.619	71.775
647.994	6.056
651.368	72.39
654.743	172.743
658.118	108.797
661.493	115.991
664.868	46.154
668.242	59.158
671.617	130.42
674.992	126.227
678.367	36.341
681.742	65.009
685.117	46.614
688.491	2.286
691.866	17.195
695.241	106.839
698.616	87.013
701.991	62.804
705.365	9.856
708.74	3.646
712.115	11.857
715.49	48.422
718.865	84.656
722.24	64.437
725.614	12.54
728.989	3.462
732.364	63.854
735.739	43.216
739.114	32.171
742.489	41.8
745.863	149.39
749.238	95.652
752.613	115.197
755.988	71.595
759.362	33.093
762.737	40.028
766.112	30.398
769.487	44.95
772.862	25.494
776.237	47.718
779.612	28.263
782.986	81.631
786.361	12.879
789.736	7.367
793.111	1.39
796.485	130.129
799.86	109.043
803.235	155.749
806.61	133.232
809.985	36.255
813.36	17.844
816.734	10.11
820.109	37.565
823.484	115.593
826.859	132.505
830.234	224.128
833.609	119.744
836.983	265.27
840.358	165.772
843.733	134.592
847.108	159.487
850.483	79.013
853.857	49.895
857.232	55.379
860.607	161.158
863.982	151.36
867.357	147.469
870.732	33.799
874.106	144.004
877.481	158.902
880.856	262.119
884.231	206.683
887.606	248.979
890.981	249.159
894.355	411.828
897.73	410.927
901.105	417.987
904.48	311.505
907.855	352.682
911.229	224.987
914.604	194.304
917.979	196.113
921.354	146.511
924.729	216.918
928.104	225.203
931.478	209.781
934.853	224.155
938.228	90.689
941.603	140.266
944.978	134.634
948.352	118.885
951.727	70.375
955.102	77.483
958.477	99.53
961.852	103.879
965.227	150.675
968.601	21.62
971.976	11.276
975.351	38.536
978.726	77.267
982.101	101.985
985.475	61.303
988.85	23.369
992.225	67.111
995.6	43.57
998.975	15.288
1002.35	117.95
1005.72	45.551
1009.1	17.273
1012.47	65.681
1015.85	44.473
1019.22	58.583
1022.6	42.082
1025.97	143.368
1029.35	174.931
1032.72	87.227
1036.1	120.159
1039.47	158.964
1042.85	51.767
1046.22	209.562
1049.6	48.705
1052.97	101.078
1056.35	91.904
1059.72	74.625
1063.1	74.847
1066.47	21.362
1069.85	42.206
1073.22	109.16
1076.6	99.044
1079.97	118.816
1083.35	19.176
1086.72	112.109
1090.1	77.831
1093.47	16.239
1096.84	55.639
1100.22	167.817
1103.59	150.892
1106.97	106.895
1110.34	117.254
1113.72	105.628
1117.09	88.546
1120.47	169.574
1123.84	33.557
1127.22	94.839
1130.59	101.925
1133.97	64.891
1137.34	37.526
1140.72	82.57
1144.09	30.741
1147.47	74.459
1150.84	36.035
1154.22	123.013
1157.59	113.079
1160.97	103.19
1164.34	91.203
1167.72	27.211
1171.09	90.383
1174.46	15.088
1177.84	117.59
1181.21	116.453
1184.59	158.624
1187.96	128.63
1191.34	120.745
1194.71	141.382
1198.09	130.378
1201.46	12.204
1204.84	123.659
1208.21	18.3
1211.59	136.909
1214.96	83.569
1218.34	69.373
1221.71	22.892
1225.09	66.857
1228.46	20.568
1231.84	48.455
1235.21	57.902
1238.59	167.185
1241.96	130.866
1245.34	122.893
1248.71	105.558
1252.09	107.696
1255.46	75.862
1258.84	186.067
1262.21	8.676
1265.59	129.428
1268.96	19.755
1272.34	117.254
1275.71	109.024
1279.09	101.76
1282.46	147.496
1285.83	123.508
1289.21	126.747
1292.58	132.238
1295.96	2.74
1299.33	66.61
