Measurement: Raman, 780 nm, unoriented, Raman Data Processed
Mineral: Wattersite
Rruff sample: R060626
Ideal chemistry: Hg^1+^_4_Hg^2+^O_2_(Cr^6+^O_4_)
Locality: Clear Creek claim, San Benito County, California, USA
Source: Michael Scott
Description: Black metallic crystals associated with red cinnabar, white quartz, silver balls of liquid mercury. Crystals are twinned by a 2-fold rotation around [100].
Raman shift (cm-1)	intensity
94.4526	0
97.8274	33.4639
101.202	18.105
104.577	9.09033
107.952	60.0727
111.327	59.1348
114.701	98.2129
118.076	117.991
121.451	115.815
124.826	125.409
128.201	102.74
131.576	72.9214
134.95	27.4277
138.325	12.5664
141.7	3.76367
145.075	0.006348
148.45	2.32373
151.825	3.25049
155.199	23.3408
158.574	55.335
161.949	80.4893
165.324	120.478
168.698	156.091
172.073	209.826
175.448	261.578
178.823	331.595
182.198	415.898
185.573	498.541
188.947	572.424
192.322	667.528
195.697	740.481
199.072	696.427
202.447	442.22
205.821	196.379
209.196	70.0576
212.571	30.2231
215.946	9.20459
219.321	14.0708
222.696	13.5566
226.07	19.1509
229.445	7.87744
232.82	9.1206
236.195	17.5132
239.57	20.3369
242.945	11.833
246.319	35.8599
249.694	17.0659
253.069	7.88818
256.444	5.70606
259.818	8.52148
263.193	1.10986
266.568	1.39648
269.943	6.09521
273.318	2.45996
276.693	6.64111
280.067	7.42725
283.442	27.0864
286.817	40.4219
290.192	71.1392
293.567	131.995
296.942	183.556
300.316	282.329
303.691	376.638
307.066	515.381
310.441	681.372
313.816	852.19
317.19	989.794
320.565	1055.1
323.94	1036.67
327.315	914.874
330.69	769.557
334.065	628.266
337.439	494.67
340.814	389.932
344.189	293.225
347.564	217.559
350.938	164.595
354.313	119.268
357.688	79.5537
361.063	57.5059
364.438	41.2837
367.813	42.4902
371.187	23.3921
374.562	17.8662
377.937	12.7173
381.312	1.66797
384.687	9.59717
388.062	5.31055
391.436	12.7661
394.811	15.8457
398.186	15.1841
401.561	5.20947
404.935	32.1963
408.31	36.1582
411.685	58.3013
415.06	86.7988
418.435	99.3643
421.81	132.783
425.184	150.273
428.559	166.536
431.934	177.203
435.309	179.009
438.684	144.621
442.058	133.469
445.433	123.292
448.808	99.2881
452.183	86.7168
455.558	82.6873
458.933	76.8479
462.307	65.9812
465.682	50.8701
469.057	46.9824
472.432	41.8284
475.807	35.3872
479.182	24.4873
482.556	22.1753
485.931	22.6296
489.306	9.65674
492.681	10.9858
496.055	9.04956
499.43	1.85083
502.805	9.56909
506.18	0.960205
509.555	4.521
512.93	9.59692
516.304	6.271
519.679	0.547363
523.054	9.89697
526.429	14.5457
529.804	17.405
533.178	25.8123
536.553	17.5952
539.928	26.0659
543.303	27.8455
546.678	37.2639
550.053	38.646
553.427	61.3325
556.802	70.9736
560.177	75.6379
563.552	77.4128
566.927	57.9236
570.302	47.9365
573.676	23.0095
577.051	26.1575
580.426	11.6741
583.801	0.66626
587.176	9.89795
590.55	9.14087
593.925	7.29321
597.3	6.59936
600.675	3.95361
604.05	6.34497
607.424	5.38672
610.799	15.0928
614.174	2.07544
617.549	8.16065
620.924	5.68652
624.298	6.13672
627.673	12.2205
631.048	8.46948
634.423	35.9255
637.798	21.2781
641.173	19.3652
644.547	9.46533
647.922	10.5252
651.297	0.364502
654.672	13.9876
658.047	0.94043
661.421	10.1206
664.796	10.625
668.171	7.48144
671.546	2.82837
674.921	10.3862
678.295	1.82227
681.67	0.874268
685.045	1.02539
688.42	6.1853
691.795	7.38867
695.17	6.52466
698.544	2.34668
701.919	5.89673
705.294	1.94702
708.669	5.97827
712.044	2.71948
715.418	20.9627
718.793	15.8152
722.168	8.75073
725.543	9.77148
728.918	8.47974
732.293	5.46021
735.667	13.1736
739.042	10.7752
742.417	14.8879
745.792	6.3457
749.167	4.2063
752.541	4.39575
755.916	23.2732
759.291	19.4529
762.666	4.67481
766.041	2.5083
769.415	7.15308
772.79	9.66943
776.165	8.61816
779.54	0.729004
782.915	2.36231
786.29	2.86304
789.664	10.3049
793.039	16.1758
796.414	9.55298
799.789	0.423096
803.164	3.43433
806.538	18.6267
809.913	17.1682
813.288	9.24463
816.663	16.2302
820.038	12.8618
823.413	17.0178
826.787	16.6853
830.162	13.1333
833.537	19.106
836.912	14.1953
840.287	19.5269
843.661	16.0437
847.036	15.3445
850.411	13.1409
853.786	16.6721
857.161	15.7769
860.535	12.9343
863.91	18.606
867.285	6.52564
870.66	17.8064
874.035	8.50659
877.409	13.814
880.784	16.7795
884.159	19.7195
887.534	18.7056
890.909	18.2427
894.284	21.0794
897.658	15.2812
901.033	13.3813
904.408	21.9778
907.783	17.2564
911.158	10.1096
914.533	17.1111
917.907	5.96606
921.282	4.77832
924.657	2.7146
928.032	10.9551
931.407	3.40063
934.781	11.3733
938.156	5.24097
941.531	4.70459
944.906	1.93579
948.281	11.623
951.655	5.92627
955.03	8.10425
958.405	8.60986
961.78	13.8621
965.155	14.3142
968.529	8.87866
971.904	4.05444
975.279	6.45776
978.654	0.37915
982.029	4.63843
985.404	6.44653
988.778	8.38062
992.153	6.57593
995.528	13.772
998.903	5.76831
1002.28	5.65869
1005.65	18.4351
1009.03	20.0942
1012.4	6.7771
1015.78	12.5107
1019.15	13.6018
1022.53	20.0088
1025.9	6.3999
1029.28	10.2651
1032.65	5.08618
1036.03	20.9868
1039.4	18.6304
1042.78	10.3696
1046.15	8.05054
1049.53	0.112793
1052.9	13.4846
1056.28	8.04199
1059.65	10.6057
1063.02	24.6611
1066.4	15.1143
1069.77	15.4121
1073.15	33.6365
1076.52	9.42822
1079.9	8.56543
1083.27	1.55493
1086.65	13.4907
1090.02	12.7502
1093.4	8.53565
1096.77	0.458252
1100.15	0.708984
1103.52	5.12207
1106.9	6.24097
1110.27	4.03223
1113.65	0.670654
1117.02	0.758057
1120.4	5.03125
1123.77	2.41772
1127.15	14.4905
1130.52	5.67065
1133.9	2.31665
1137.27	9.32153
1140.64	11.3928
1144.02	5.52173
1147.39	5.49609
1150.77	1.30103
1154.14	17.0998
1157.52	10.6846
1160.89	15.0584
1164.27	12.3386
1167.64	19.3955
1171.02	13.7434
1174.39	18.8577
1177.77	22.6106
1181.14	17.7947
1184.52	21.0969
1187.89	28.7473
1191.27	16.0039
1194.64	20.8049
1198.02	21.426
1201.39	26.3247
1204.77	24.1804
1208.14	11.8455
1211.52	14.6594
1214.89	15.7546
1218.27	13.5366
1221.64	1.98535
1225.02	12.3894
1228.39	11.2856
1231.77	9.41748
1235.14	5.14478
1238.52	0.907227
1241.89	4.22559
1245.26	12.4851
1248.64	2.27734
1252.01	6.24512
1255.39	7.60962
1258.76	12.6738
1262.14	9.85889
1265.51	16.5872
1268.89	7.97583
1272.26	11.0693
1275.64	4.19189
1279.01	3.39966
1282.39	5.61792
