Measurement: Raman, 785 nm, unoriented, Raman Data Processed
Mineral: Wavellite
Rruff sample: R040176
Ideal chemistry: Al_3_(PO_4_)_2_(OH)_3_5H_2_O
Locality: Montgomery County, Arkansas, USA
Source: University of Arizona Mineral Museum
Description: Pale green radial aggregates
Measured chemistry: (Al_0.88_V_0.03_)_3_(P_0.97_O_4_)_2_((OH)_1.74_F_0.26_)_3_Â·5H_2_O
Raman shift (cm-1)	intensity
146.572	0
149.464	182.183
152.357	433.337
155.25	482.173
158.142	437.211
161.035	493.724
163.928	796.839
166.821	868.051
169.713	676.236
172.606	318.806
175.499	188.339
178.391	43.6309
181.284	20.6184
184.177	53.8897
187.069	94.3843
189.962	216.779
192.855	248.202
195.748	352.161
198.64	434.554
201.533	544.47
204.426	711.146
207.318	918.115
210.211	1139.61
213.104	1184.85
215.996	1138.62
218.889	1085.66
221.782	963.879
224.674	809.382
227.567	635.417
230.46	383.546
233.353	200.851
236.245	83.4534
239.138	24.3694
242.031	2.19274
244.923	15.472
247.816	12.4821
250.709	36.5542
253.601	93.3796
256.494	192.675
259.387	256.268
262.28	399.616
265.172	558.628
268.065	743.466
270.958	1008.1
273.85	1154.51
276.743	1189.74
279.636	1170.57
282.529	1022.39
285.421	816.75
288.314	688.698
291.207	608.79
294.099	446.575
296.992	324.805
299.885	329.642
302.777	348.434
305.67	436.678
308.563	576.4
311.455	734.006
314.348	832.701
317.241	634.32
320.134	382.727
323.026	249.444
325.919	150.029
328.812	75.2522
331.704	36.5403
334.597	3.20239
337.49	10.114
340.382	18.5975
343.275	6.48926
346.168	80.1594
349.061	141.456
351.953	233.609
354.846	286.964
357.739	374.891
360.631	371.489
363.524	460.493
366.417	548.762
369.31	620.107
372.202	757.543
375.095	948.025
377.988	1208.63
380.88	1543.52
383.773	1967.2
386.666	2436.46
389.558	3004.56
392.451	3728.89
395.344	4370.02
398.236	5079.58
401.129	5699.51
404.022	6187.53
406.915	6483.66
409.807	6602.11
412.7	6454.64
415.593	5871.98
418.485	5080.43
421.378	4086.61
424.271	3082.55
427.163	2292.47
430.056	1652.45
432.949	1173.09
435.842	828.106
438.734	593.008
441.627	400.407
444.52	283.515
447.412	169.271
450.305	119.627
453.198	67.259
456.091	15.4898
458.983	11.1428
461.876	32.6028
464.769	34.9224
467.661	16.5815
470.554	11.0359
473.447	2.38574
476.339	15.9416
479.232	17.0596
482.125	27.8804
485.017	35.8367
487.91	10.2666
490.803	28.208
493.696	28.9043
496.588	5.65552
499.481	33.9434
502.374	12.2217
505.266	13.6699
508.159	86.8511
511.052	99.0169
513.944	155.248
516.837	216.442
519.73	297.632
522.623	401.63
525.515	570.372
528.408	786.851
531.301	1058.52
534.193	1343.36
537.086	1612.81
539.979	1758.75
542.871	1818.14
545.764	1742.43
548.657	1612.54
551.55	1495.14
554.442	1326.73
557.335	1244.59
560.228	1154.87
563.12	1071.19
566.013	949.734
568.906	833.227
571.798	668.568
574.691	559.991
577.584	481.387
580.477	348.499
583.369	261.511
586.262	163.333
589.155	149.675
592.047	144.592
594.94	128.196
597.833	182.89
600.726	268.775
603.618	409.797
606.511	593
609.404	709.438
612.296	921.319
615.189	1119.93
618.082	1299.37
620.974	1513.03
623.867	1730.33
626.76	1938.79
629.653	2088.2
632.545	2262.84
635.438	2240.45
638.331	2242.42
641.223	2148.51
644.116	2039.25
647.009	1834.2
649.901	1642.38
652.794	1409.99
655.687	1113.48
658.58	894.116
661.472	669.043
664.365	512.207
667.258	384.384
670.15	250.135
673.043	148.408
675.936	101.544
678.828	97.2417
681.721	21.707
684.614	10.7707
687.506	44.748
690.399	19.9473
693.292	30.0896
696.185	1.68311
699.077	33.0361
701.97	15.887
704.863	6.50122
707.755	2.14136
710.648	28.1008
713.541	11.4211
716.433	28.2786
719.326	48.604
722.219	26.3118
725.112	61.5254
728.004	84.7183
730.897	94.3213
733.79	84.6809
736.682	126.696
739.575	116.499
742.468	124.937
745.361	132.258
748.253	144.802
751.146	126.155
754.039	125.198
756.931	136.344
759.824	129.902
762.717	128.486
765.609	146.498
768.502	123.013
771.395	121.96
774.288	111.466
777.18	117.044
780.073	79.5823
782.966	105.013
785.858	94.5986
788.751	67.4453
791.644	81.4875
794.536	119.067
797.429	109.911
800.322	98.0691
803.215	92.4981
806.107	104.303
809	67.7473
811.893	109.803
814.785	87.2676
817.678	99.8359
820.571	97.0603
823.463	39.0759
826.356	55.1965
829.249	56.1108
832.141	76.728
835.034	37.3516
837.927	50.8074
840.82	61.2261
843.712	6.36108
846.605	29.9041
849.498	5.84936
852.39	0.268066
855.283	15.218
858.176	4.88037
861.068	24.4485
863.961	1.04639
866.854	7.229
869.747	8.64185
872.639	31.8916
875.532	26.2063
878.425	39.7913
881.317	1.6355
884.21	89.5388
887.103	91.7026
889.995	90.4377
892.888	137.662
895.781	174.087
898.674	161.669
901.566	155.059
904.459	210.711
907.352	253.075
910.244	254.959
913.137	271.145
916.03	336.024
918.923	340.138
921.815	337.773
924.708	303.929
927.601	262.571
930.493	233.163
933.386	198.746
936.279	149.072
939.171	108.177
942.064	92.6255
944.957	82.8118
947.85	104.424
950.742	101.594
953.635	78.6436
956.528	95.7566
959.42	45.9714
962.313	11.7844
965.206	28.1992
968.098	56.0635
970.991	25.7664
973.884	5.37451
976.777	10.4416
979.669	104.123
982.562	196.574
985.455	338.132
988.347	494.451
991.24	685.05
994.133	903.109
997.025	1181.08
999.918	1597.15
1002.81	2036.03
1005.7	2543.09
1008.6	3350.34
1011.49	4299.29
1014.38	5204.35
1017.27	6145.44
1020.17	6564.83
1023.06	6202.58
1025.95	5095.44
1028.85	3772.25
1031.74	2641.07
1034.63	1866.65
1037.52	1381.84
1040.42	1123.27
1043.31	944.466
1046.2	892.291
1049.09	800.446
1051.99	725.215
1054.88	633.204
1057.77	604.052
1060.66	550.534
1063.56	580.616
1066.45	615.189
1069.34	531.77
1072.24	418.738
1075.13	298.318
1078.02	182.5
1080.91	105.058
1083.81	51.4866
1086.7	51.1963
1089.59	50.7705
1092.48	11.209
1095.38	29.1333
1098.27	15.6082
1101.16	40.8332
1104.06	8.52051
1106.95	4.75195
1109.84	16.6968
1112.73	19.6787
1115.63	15.4231
1118.52	11.7417
1121.41	50.7588
1124.3	40.6194
1127.2	16.0877
1130.09	38.2095
1132.98	77.9016
1135.88	165.781
1138.77	155.564
1141.66	205.093
1144.55	313.405
1147.45	334.039
1150.34	364.44
1153.23	377.734
1156.12	305.335
1159.02	260.772
1161.91	169.899
1164.8	118.596
1167.69	132.427
1170.59	57.3242
1173.48	39.6489
1176.37	1.37158
1179.27	15.2595
1182.16	2.67481
1185.05	35.5654
1187.94	47.8355
1190.84	35.0801
1193.73	54.2749
1196.62	49.6311
1199.51	100.03
1202.41	77.853
1205.3	78.8176
1208.19	71.7112
1211.09	76.8023
1213.98	55.5471
1216.87	32.6953
1219.76	16.7029
1222.66	44.4487
1225.55	26.7918
1228.44	0
