Measurement: Raman, 532 nm, unoriented, Raman Data Processed
Mineral: Wavellite
Rruff sample: R050219
Ideal chemistry: Al_3_(PO_4_)_2_(OH)_3_5H_2_O
Locality: Kapunda Quarry, South Australia, Australia
Source: Marcus Origlieri
Description: Radial aggregate of colorless acicular crystals
Measured chemistry: (Al_2.96_Fe^3+^_0.04_)_Σ=3_(P_1.00_O_4_)_2_((OH)_2.02_F_0.98_)_Σ=3_·5H_2_O
Raman shift (cm-1)	intensity
150.636	0
153.529	12.6417
156.421	12.5011
159.314	13.2568
162.207	29.6935
165.099	42.8761
167.992	32.2579
170.885	21.0182
173.777	8.89026
176.67	2.33435
179.563	2.69653
182.456	13.2782
185.348	10.0641
188.241	22.536
191.134	27.5397
194.026	36.3446
196.919	18.2404
199.812	6.69104
202.704	6.56726
205.597	12.2538
208.49	24.1497
211.382	36.2418
214.275	33.1392
217.168	29.5248
220.061	22.9268
222.953	18.2372
225.846	8.70801
228.739	7.07532
231.631	9.89209
234.524	7.33386
237.417	0.266724
240.31	2.84241
243.202	2.36316
246.095	3.70679
248.988	6.81946
251.88	4.15344
254.773	9.94141
257.666	11.7943
260.558	14.9758
263.451	18.051
266.344	26.1464
269.236	44.2811
272.129	60.1462
275.022	60.5081
277.915	65.9727
280.807	65.8354
283.7	53.5562
286.593	42.7814
289.485	39.9165
292.378	34.006
295.271	17.2772
298.163	9.90051
301.056	7.1228
303.949	14.6709
306.842	25.9678
309.734	34.2246
312.627	49.3704
315.52	55.0154
318.412	39.224
321.305	23.8081
324.198	10.4081
327.091	5.27466
329.983	3.16016
332.876	1.36792
335.769	1.69885
338.661	4.41736
341.554	0.604736
344.447	10.4633
347.339	4.76269
350.232	13.754
353.125	11.7823
356.017	10.9313
358.91	1.94495
361.803	13.0392
364.696	7.23206
367.588	19.6615
370.481	23.2144
373.374	27.299
376.266	41.2358
379.159	63.0468
382.052	77.9219
384.945	103.028
387.837	130.126
390.73	149.496
393.623	185.277
396.515	214.586
399.408	227.024
402.301	253.319
405.193	269.558
408.086	281.246
410.979	273.144
413.872	277.519
416.764	253.77
419.657	210.244
422.55	162.43
425.442	130.346
428.335	101.327
431.228	89.5229
434.12	78.5388
437.013	56.4321
439.906	35.063
442.798	24.6792
445.691	12.3477
448.584	8.60693
451.477	4.25098
454.369	2.36523
457.262	3.9126
460.155	0.396729
463.047	1.19971
465.94	2.86597
468.833	4.36987
471.726	4.9939
474.618	6.05151
477.511	4.3457
480.404	5.67554
483.296	3.39404
486.189	5.87769
489.082	1.35938
491.974	1.34522
494.867	6.24097
497.76	10.7759
500.652	0.703613
503.545	2.75244
506.438	3.25952
509.331	0.466797
512.223	0.793701
515.116	2.29785
518.009	9.42676
520.901	12.2185
523.794	8.73511
526.687	19.3957
529.58	28.8501
532.472	33.2676
535.365	52.5676
538.258	60.7012
541.15	68.7522
544.043	68.7695
546.936	63.7466
549.828	59.8313
552.721	49.5737
555.614	42.1426
558.506	29.2629
561.399	43.998
564.292	36.2512
567.185	36.415
570.077	31.6086
572.97	22.9316
575.863	14.8914
578.755	9.80298
581.648	11.5198
584.541	3.97705
587.433	0.044678
590.326	6.66772
593.219	4.67847
596.111	3.98657
599.004	8.27515
601.897	13.7163
604.79	17.0325
607.682	27.3301
610.575	34.001
613.468	35.9993
616.36	50.7302
619.253	58.314
622.146	76.6921
625.038	73.9544
627.931	85.3611
630.824	87.2085
633.717	95.1797
636.609	96.0044
639.502	92.8079
642.395	90.3152
645.287	87.7383
648.18	89.7563
651.073	76.0764
653.966	65.6924
656.858	54.1116
659.751	39.0723
662.644	33.2195
665.536	26.0247
668.429	26.6348
671.322	24.1921
674.214	24.5256
677.107	18.2432
680	16.0559
682.893	2.94824
685.785	1.25293
688.678	4.63623
691.571	1.84766
694.463	3.46484
697.356	2.47705
700.249	3.59351
703.141	0.536133
706.034	2.64087
708.927	1.46118
711.819	10.3721
714.712	6.07617
717.605	4.90869
720.498	1.16675
723.39	9.39014
726.283	7.56567
729.176	2.47803
732.068	6.23413
734.961	0.203125
737.854	5.29541
740.746	6.89429
743.639	8.34692
746.532	7.23169
749.425	7.97192
752.317	1.74683
755.21	3.55762
758.103	9.20557
760.995	3.66943
763.888	6.91846
766.781	8.48901
769.673	11.1467
772.566	7.47363
775.459	7.11206
778.352	6.1333
781.244	10.2439
784.137	7.50244
787.03	7.83984
789.922	14.6023
792.815	1.09546
795.708	5.86157
798.601	10.5481
801.493	8.61841
804.386	9.8833
807.279	6.22095
810.171	7.43018
813.064	5.07056
815.957	14.6323
818.849	8.48438
821.742	6.57275
824.635	16.1787
827.528	10.456
830.42	7.81128
833.313	8.17114
836.206	5.17725
839.098	10.3809
841.991	9.82153
844.884	12.5889
847.776	8.22046
850.669	4.34692
853.562	0.266113
856.455	9.30835
859.347	9.72656
862.24	3.11011
865.133	0.794189
868.025	4.29053
870.918	4.2876
873.811	6.33057
876.703	5.47241
879.596	5.23364
882.489	0.233643
885.381	3.74414
888.274	1
891.167	10.2246
894.06	9.82471
896.952	4.95557
899.845	5.2063
902.738	0.639648
905.63	3.72339
908.523	8.40601
911.416	9.61865
914.308	9.90405
917.201	6.70654
920.094	11.155
922.987	10.3723
925.879	12.269
928.772	10.5718
931.665	11.2039
934.557	4.12549
937.45	8.18604
940.343	20.0415
943.236	23.9802
946.128	12.1899
949.021	11.146
951.914	6.21265
954.806	11.666
957.699	7.4519
960.592	9.42529
963.484	11.9302
966.377	3.02954
969.27	2.95459
972.163	6.3938
975.055	0.348877
977.948	7.34302
980.841	9.0669
983.733	17.5706
986.626	17.3455
989.519	21.9797
992.411	25.561
995.304	36.4023
998.197	47.0527
1001.09	66.1465
1003.98	98.6882
1006.88	130.175
1009.77	182.559
1012.66	232.755
1015.55	275.057
1018.45	314.421
1021.34	327.259
1024.23	325.047
1027.12	265.799
1030.02	207.195
1032.91	144.218
1035.8	107.21
1038.69	89.1909
1041.59	81.2927
1044.48	68.481
1047.37	55.4675
1050.27	45.3738
1053.16	51.4971
1056.05	46.5027
1058.94	47.4477
1061.84	38.0984
1064.73	33.1497
1067.62	30.2092
1070.51	21.8359
1073.41	15.6428
1076.3	6.12939
1079.19	4.23315
1082.09	1.38892
1084.98	0.333984
1087.87	0.358154
1090.76	7.10889
1093.66	1.04736
1096.55	11.5879
1099.44	0.270996
1102.33	3.19482
1105.23	5.52612
1108.12	0.521484
1111.01	3.29981
1113.9	8.42261
1116.8	14.7847
1119.69	7.07861
1122.58	9.42456
1125.47	11.7131
1128.37	5.3269
1131.26	2.30396
1134.15	4.89893
1137.05	13.957
1139.94	21.4978
1142.83	27.5046
1145.72	33.5256
1148.62	37.3367
1151.51	35.0847
1154.4	39.1831
1157.3	31.8179
1160.19	25.1316
1163.08	21.175
1165.97	22.0598
1168.87	14.7815
1171.76	0.050049
1174.65	4.74487
1177.54	6.86377
1180.44	6.15771
1183.33	12.5168
1186.22	5.72656
1189.12	12.4092
1192.01	10.5886
1194.9	9.72949
1197.79	3.0022
1200.69	2.02197
1203.58	7.42505
1206.47	16.259
1209.36	18.6599
1212.26	15.0957
1215.15	11.8547
1218.04	17.8232
1220.93	12.9665
1223.83	22.0791
1226.72	12.2112
1229.61	15.6951
1232.51	9.07617
1235.4	4.67358
1238.29	8.20532
1241.18	2.03272
1244.08	9.37012
1246.97	9.10864
1249.86	19.77
1252.75	13.2275
1255.65	12.4104
1258.54	17.4243
1261.43	24.0996
1264.33	17.3965
1267.22	17.2588
1270.11	3.03198
1273	17.032
1275.9	15.387
1278.79	12.1399
1281.68	10.655
1284.57	11.1069
1287.47	6.98877
1290.36	9.22046
1293.25	9.63159
1296.14	3.07666
