Measurement: Raman, 514 nm, unoriented, Raman Data Processed
Mineral: Wavellite
Rruff sample: R040176
Ideal chemistry: Al_3_(PO_4_)_2_(OH)_3_5H_2_O
Locality: Montgomery County, Arkansas, USA
Source: University of Arizona Mineral Museum
Description: Pale green radial aggregates
Measured chemistry: (Al_0.88_V_0.03_)_3_(P_0.97_O_4_)_2_((OH)_1.74_F_0.26_)_3_Â·5H_2_O
Raman shift (cm-1)	intensity
103.124	0
107.3	661.572
111.473	706.016
115.644	1600.34
119.813	1616.78
123.981	1028.04
128.146	381.734
132.309	169.973
136.47	44.824
140.63	517.591
144.787	348.038
148.942	358.786
153.096	137.329
157.247	397.956
161.396	589.953
165.544	482.278
169.689	141.803
173.833	69.629
177.974	46.593
182.114	579.318
186.251	1324.71
190.387	1817.88
194.52	1575.05
198.652	1097.06
202.782	929.691
206.909	1580.94
211.035	1727.42
215.159	982.914
219.281	484.783
223.4	237.785
227.518	210.797
231.634	65.931
235.748	10.191
239.86	94.42
243.97	43.093
248.079	38.275
252.185	39.536
256.289	304.133
260.391	593.402
264.492	980.584
268.59	1789.94
272.687	2754.3
276.781	2905.01
280.874	2680.87
284.964	2114.44
289.053	1724.41
293.14	1310.76
297.225	754.685
301.308	819.279
305.389	1016.53
309.468	1767.43
313.545	2276.45
317.62	1860.83
321.693	1507.64
325.765	873.427
329.834	543.177
333.902	267.989
337.967	251.586
342.031	330.778
346.093	450.232
350.153	509.402
354.21	639.689
358.267	725.08
362.321	852.556
366.373	991.109
370.423	1390.73
374.471	1968.1
378.518	2515.09
382.563	3514.84
386.605	4659.63
390.646	6314.48
394.685	8129.31
398.722	10166.3
402.757	11481.2
406.79	13044.2
410.821	13389.9
414.851	12870.6
418.878	10827.9
422.904	8629.8
426.927	7178.95
430.949	5780.24
434.969	4419.61
438.987	2631.17
443.003	1442.05
447.018	719.594
451.03	329.553
455.041	232.516
459.049	456.575
463.056	9.743
467.061	92.051
471.064	110.104
475.065	29.51
479.064	45.605
483.062	65.498
487.057	85.071
491.051	141.456
495.043	195.801
499.032	246.299
503.02	350.512
507.007	374.835
510.991	438.533
514.973	444.095
518.954	826.508
522.933	917.768
526.91	1558.87
530.885	2293.8
534.858	3362.55
538.829	4025.03
542.799	4429.74
546.766	4620.74
550.732	4328.69
554.696	4042.08
558.658	3848.92
562.618	3722.27
566.576	3334.71
570.533	3278.46
574.488	2854.99
578.44	2498.81
582.391	2469.17
586.341	2188.99
590.288	2335.99
594.233	2334.3
598.177	2503.05
602.119	2824.92
606.059	3484.35
609.997	3758.47
613.933	4264.64
617.868	4878.82
621.801	5666.95
625.731	5936.94
629.66	6590.99
633.588	6725.86
637.513	6420.58
641.437	6350.74
645.358	6106.52
649.278	5473
653.196	4716.8
657.113	4286.96
661.027	3695.7
664.94	2972.21
668.851	2351.87
672.76	1757.95
676.667	1417.51
680.572	1379.76
684.476	930.398
688.378	734.555
692.278	530.246
696.176	516.449
700.072	294.133
703.967	236.32
707.86	335.945
711.751	224.98
715.64	39.32
719.527	112.045
723.413	35.111
727.297	0.498
731.179	64.162
735.059	22.893
738.937	34.166
742.814	12.33
746.689	21.156
750.562	56.529
754.433	132.689
758.303	193.76
762.17	2.213
766.036	6.371
769.901	156.129
773.763	239.428
777.624	33.584
781.482	52.768
785.339	2.814
789.195	127.379
793.048	69.943
796.9	201.104
800.75	41.914
804.598	5.375
808.445	97.342
812.289	73.879
816.132	30.137
819.973	49.109
823.813	62.822
827.65	203.287
831.486	176.523
835.32	36.535
839.152	326.332
842.983	233.93
846.812	231.336
850.639	70.666
854.464	115.111
858.288	193.352
862.11	198.225
865.93	217.791
869.748	155.035
873.564	248.039
877.379	82.693
881.192	315.672
885.004	267.195
888.813	392.568
892.621	455.496
896.427	400.305
900.232	653.746
904.034	565.156
907.835	667.428
911.634	782.893
915.432	914.744
919.227	804.723
923.021	1110.98
926.813	1165.06
930.604	1188.48
934.393	1077.99
938.18	1119.52
941.965	1177.18
945.749	1228.41
949.53	1463.33
953.311	1482.45
957.089	1635.54
960.866	1387.94
964.641	1344.34
968.414	1361.87
972.185	1363.69
975.955	1503.17
979.723	1721.05
983.49	2099.33
987.254	2757.75
991.017	3374.65
994.779	4109.87
998.538	5151.45
1002.3	6515.43
1006.05	8162.83
1009.81	10467.6
1013.56	14307.8
1017.31	18055.5
1021.06	20961.6
1024.81	20762.2
1028.55	15950.3
1032.3	12256.2
1036.04	8241.7
1039.78	6204.69
1043.52	5167.56
1047.26	4685.51
1050.99	4581.22
1054.73	4110.78
1058.46	3907.89
1062.19	3757.18
1065.92	3701.72
1069.65	3369.25
1073.37	3037.97
1077.1	2724.17
1080.82	2321.76
1084.54	1996.7
1088.26	2111.51
1091.97	2370.95
1095.69	2221.6
1099.4	2196.74
1103.12	1950.62
1106.83	1542.82
1110.54	1309.85
1114.24	1489.33
1117.95	1616.92
1121.65	1517.72
1125.35	1628
1129.06	1607.43
1132.75	1837.82
1136.45	1735.17
1140.15	2537.51
1143.84	2621.97
1147.53	2976.55
1151.22	2757.23
1154.91	2504.41
1158.6	1826.67
1162.28	1248.86
1165.97	816.637
1169.65	591.947
1173.33	215.197
1177.01	390.881
1180.69	211.191
1184.36	148.979
1188.04	101.164
1191.71	93.672
1195.38	46.947
1199.05	46.607
1202.71	71.334
1206.38	346.059
1210.04	125.619
1213.71	50.053
1217.37	96.303
1221.03	114.193
1224.68	20.293
1228.34	3.312
1231.99	180.801
1235.65	135.654
1239.3	240.729
1242.95	173.18
1246.59	71.6
1250.24	153.316
1253.88	68.352
1257.53	60.006
1261.17	205.084
1264.81	240.496
1268.45	30.248
1272.08	56.488
1275.72	67.562
1279.35	56.785
1282.98	161.195
1286.61	221.852
1290.24	348.734
1293.87	75.785
1297.49	254.041
1301.11	160.404
1304.73	103.926
1308.36	6.379
1311.97	241.418
1315.59	93.633
1319.2	233.408
1322.82	176.691
1326.43	167.77
1330.04	229.922
1333.65	183.748
1337.26	345.678
1340.86	163.842
1344.47	116.025
1348.07	176.137
1351.67	147.014
1355.27	228.525
1358.87	380.283
1362.46	281.242
1366.06	388.709
1369.65	353.848
1373.24	488.768
1376.83	397.137
1380.42	170.637
1384	191.422
1387.59	353.939
1391.17	222.891
1394.75	269.25
1398.33	416.498
1401.91	339.688
1405.49	386.473
1409.06	167.354
1412.64	32.475
1416.21	379.043
1419.78	283.666
1423.35	647.051
1426.91	331.672
1430.48	278.336
1434.05	254.031
1437.61	536.004
1441.17	260.754
1444.73	377.365
1448.29	440.988
1451.84	270.562
1455.4	211.611
1458.95	325.164
1462.5	541.713
1466.05	490.672
1469.6	283.805
1473.15	596.264
1476.69	448.404
1480.24	409.398
1483.78	288.252
1487.32	459.543
1490.86	210.949
1494.39	403.543
1497.93	142.973
