Measurement: Raman, 780 nm, unoriented, Raman Data Processed
Mineral: Wavellite
Rruff sample: R050219
Ideal chemistry: Al_3_(PO_4_)_2_(OH)_3_5H_2_O
Locality: Kapunda Quarry, South Australia, Australia
Source: Marcus Origlieri
Description: Radial aggregate of colorless acicular crystals
Measured chemistry: (Al_2.96_Fe^3+^_0.04_)_Σ=3_(P_1.00_O_4_)_2_((OH)_2.02_F_0.98_)_Σ=3_·5H_2_O
Raman shift (cm-1)	intensity
146.833	0
149.725	0.639282
152.618	5.20511
155.511	8.1178
158.404	12.2065
161.296	15.3753
164.189	17.1513
167.082	13.7251
169.974	8.62143
172.867	1.0766
175.76	0.117859
178.652	0.194641
181.545	0.080505
184.438	2.22458
187.331	4.63553
190.223	9.79327
193.116	10.3699
196.009	8.51877
198.901	7.59305
201.794	11.3697
204.687	16.8564
207.579	21.6196
210.472	28.887
213.365	26.4709
216.257	17.305
219.15	9.94867
222.043	8.05087
224.936	6.00913
227.828	11.6239
230.721	9.42282
233.614	3.17859
236.506	7.33182
239.399	6.00748
242.292	2.43591
245.185	3.30133
248.077	4.1676
250.97	0.890961
253.863	1.1308
256.755	2.5997
259.648	3.78726
262.541	7.20728
265.433	6.20367
268.326	13.1416
271.219	18.6294
274.111	23.5779
277.004	26.1911
279.897	23.0014
282.79	20.6097
285.682	17.9896
288.575	16.7281
291.468	16.6446
294.36	13.3072
297.253	15.8913
300.146	17.6454
303.038	25.3921
305.931	34.3654
308.824	43.0767
311.717	50.148
314.609	47.5205
317.502	31.017
320.395	14.7255
323.287	5.52689
326.18	3.65131
329.073	2.12161
331.966	3.53119
334.858	0.402222
337.751	0.444763
340.644	6.10318
343.536	6.79166
346.429	11.5347
349.322	11.5185
352.214	16.8702
355.107	13.3525
358	10.7092
360.892	4.69965
363.785	5.59335
366.678	4.4722
369.571	9.87134
372.463	13.9413
375.356	21.2422
378.249	26.7847
381.141	34.8895
384.034	43.84
386.927	50.6873
389.82	57.8396
392.712	60.6666
395.605	61.8179
398.498	67.3283
401.39	66.1275
404.283	60.4114
407.176	57.0891
410.068	50.8161
412.961	45.6583
415.854	36.0399
418.747	28.0358
421.639	23.4125
424.532	20.2713
427.425	18.3252
430.317	14.2411
433.21	11.5045
436.103	5.60941
438.995	1.76932
441.888	1.04675
444.781	1.00986
447.673	0.113586
450.566	3.06049
453.459	2.06485
456.352	2.0647
459.244	3.14691
462.137	7.54376
465.03	7.64343
467.922	8.18402
470.815	8.11069
473.708	9.29733
476.601	8.78503
479.493	4.75015
482.386	6.45261
485.279	3.02304
488.171	3.01675
491.064	3.55106
493.957	4.79828
496.849	2.85477
499.742	1.46433
502.635	1.84936
505.527	0.684723
508.42	0.689606
511.313	0.954712
514.206	1.0567
517.098	1.35175
519.991	0.245148
522.884	0.969604
525.776	3.93024
528.669	4.25592
531.562	7.20825
534.455	7.68649
537.347	8.79816
540.24	9.75452
543.133	9.09161
546.025	10.5332
548.918	8.08707
551.811	9.85437
554.703	8.86523
557.596	7.38602
560.489	8.52957
563.381	7.9816
566.274	4.48328
569.167	7.6481
572.06	5.54532
574.952	5.7847
577.845	3.73782
580.738	0.168213
583.63	1.30212
586.523	2.54968
589.416	2.74478
592.308	3.94348
595.201	3.56476
598.094	5.00638
600.986	3.67966
603.879	8.58865
606.772	6.94321
609.665	9.73993
612.557	13.0066
615.45	14.1913
618.343	15.4262
621.235	17.6494
624.128	18.9738
627.021	20.3202
629.913	22.5154
632.806	20.9392
635.699	20.7191
638.592	20.405
641.484	20.6548
644.377	17.2166
647.27	18.1418
650.162	16.3594
653.055	13.739
655.948	12.0849
658.841	8.34973
661.733	9.85782
664.626	8.49759
667.519	4.89767
670.411	5.22354
673.304	6.02634
676.197	4.88861
679.089	3.30502
681.982	2.2912
684.875	3.57077
687.768	1.52747
690.66	0.817047
693.553	1.27509
696.446	0.561249
699.338	0.773895
702.231	0.924347
705.124	0.496765
708.016	2.1767
710.909	0.566193
713.802	0.391815
716.694	3.40839
719.587	0.152618
722.48	2.50766
725.373	1.60818
728.265	1.25378
731.158	1.07518
734.051	2.05777
736.943	2.7234
739.836	1.12541
742.729	1.84477
745.621	1.46426
748.514	3.30283
751.407	3.78626
754.3	2.77927
757.192	1.7144
760.085	2.28229
762.978	1.37209
765.87	3.23347
768.763	1.9402
771.656	3.64622
774.548	3.36946
777.441	1.44894
780.334	3.81088
783.227	4.45946
786.119	0.514374
789.012	1.13007
791.905	2.05414
794.797	1.35507
797.69	3.12097
800.583	3.31686
803.476	1.99834
806.368	3.8961
809.261	3.40022
812.154	3.56224
815.046	3.26269
817.939	3.2364
820.832	3.47404
823.724	2.52554
826.617	3.65292
829.51	3.88951
832.403	2.95488
835.295	5.16638
838.188	3.97531
841.081	4.2653
843.973	4.56133
846.866	5.48283
849.759	3.43849
852.651	4.41298
855.544	5.3399
858.437	3.64758
861.33	3.05626
864.222	3.44922
867.115	4.09341
870.008	3.36134
872.9	4.77918
875.793	3.04547
878.686	2.19379
881.578	1.98605
884.471	2.9865
887.364	2.4016
890.256	2.46461
893.149	0.84787
896.042	0.077225
898.935	1.30449
901.827	1.43407
904.72	0.968155
907.613	0.833542
910.505	1.56245
913.398	1.86855
916.291	2.78723
919.183	1.30101
922.076	3.20201
924.969	2.29283
927.862	0.304031
930.754	1.46312
933.647	1.4212
936.54	1.44156
939.432	2.26959
942.325	0.605606
945.218	2.77145
948.111	0.191635
951.003	0.588531
953.896	1.94666
956.789	2.61002
959.681	0.303604
962.574	0.207809
965.467	1.85286
968.359	0.23822
971.252	0.237411
974.145	0.171265
977.038	2.17723
979.93	1.08897
982.823	2.50972
985.716	4.6897
988.608	5.65065
991.501	9.35985
994.394	10.7739
997.286	17.0217
1000.18	21.4907
1003.07	31.9202
1005.96	42.3401
1008.86	52.3758
1011.75	65.9792
1014.64	76.8638
1017.53	85.1465
1020.43	86.1814
1023.32	79.333
1026.21	63.4618
1029.11	47.3452
1032	35.0043
1034.89	28.1504
1037.78	26.0871
1040.68	22.8218
1043.57	20.6434
1046.46	20.8959
1049.36	17.4836
1052.25	15.547
1055.14	11.543
1058.03	10.722
1060.93	8.69339
1063.82	7.45244
1066.71	5.5244
1069.6	4.41432
1072.5	2.01923
1075.39	0.218124
1078.28	1.51239
1081.17	1.41844
1084.07	1.42955
1086.96	2.34259
1089.85	2.26239
1092.74	1.79315
1095.64	0.999588
1098.53	2.80992
1101.42	1.12112
1104.32	0.635239
1107.21	1.68933
1110.1	3.32184
1112.99	4.93964
1115.89	3.34135
1118.78	2.55373
1121.67	3.69315
1124.57	4.03973
1127.46	4.37665
1130.35	5.09909
1133.24	8.61015
1136.14	8.35855
1139.03	12.2098
1141.92	11.9257
1144.81	13.4465
1147.71	13.1146
1150.6	14.3668
1153.49	12.6272
1156.38	12.4928
1159.28	11.0399
1162.17	6.48409
1165.06	4.32919
1167.96	3.58899
1170.85	3.17798
1173.74	2.71573
1176.63	1.20021
1179.53	0.595642
1182.42	0.06842
1185.31	0.444046
1188.2	1.95563
1191.1	0.816757
1193.99	1.31406
1196.88	0.860352
1199.78	1.26549
1202.67	1.0058
1205.56	0.38324
1208.45	0.110733
1211.35	0.044235
1214.24	1.84158
1217.13	1.25028
1220.02	0.414536
1222.92	2.33311
1225.81	2.21709
1228.7	3.44789
1231.6	2.04416
1234.49	2.95651
1237.38	2.15848
1240.27	2.52484
1243.17	3.29642
1246.06	2.7746
1248.95	2.90335
1251.84	1.15552
1254.74	1.82719
1257.63	3.30344
1260.52	2.71425
1263.41	1.12949
1266.31	1.11275
1269.2	1.6758
1272.09	2.72998
1274.99	0.912674
1277.88	0.416046
