Measurement: Raman, 532 nm, unoriented, Raman Data Processed
Mineral: Wavellite
Rruff sample: R040176
Ideal chemistry: Al_3_(PO_4_)_2_(OH)_3_5H_2_O
Locality: Montgomery County, Arkansas, USA
Source: University of Arizona Mineral Museum
Description: Pale green radial aggregates
Measured chemistry: (Al_0.88_V_0.03_)_3_(P_0.97_O_4_)_2_((OH)_1.74_F_0.26_)_3_Â·5H_2_O
Raman shift (cm-1)	intensity
139.055	0
142.43	10.8224
145.805	59.1547
149.18	196.663
152.554	463.135
155.929	715.914
159.304	996.629
162.679	1262
166.054	1209.7
169.429	816.303
172.803	447.791
176.178	206.134
179.553	37.9141
182.928	20.0305
186.303	8.29419
189.678	89.0862
193.052	174.123
196.427	226.973
199.802	345.961
203.177	581.393
206.552	873.98
209.926	1272.33
213.301	1377.56
216.676	1307.98
220.051	1205.26
223.426	967.24
226.8	688.802
230.175	419.638
233.55	231.631
236.925	89.1567
240.3	30.0454
243.675	29.0071
247.049	51.1316
250.424	12.8582
253.799	91.5752
257.174	107.814
260.549	79.6514
263.923	123.641
267.298	209.816
270.673	453.537
274.048	641.772
277.423	749.448
280.798	736.941
284.172	703.809
287.547	667.83
290.922	584.362
294.297	441.102
297.672	346.253
301.046	417.34
304.421	708.746
307.796	1186.59
311.171	1660.2
314.546	1808.62
317.921	1285.68
321.295	674.868
324.67	246.348
328.045	95.5173
331.42	21.9159
334.795	-9.1994
338.17	22.9144
341.544	146.221
344.919	405.074
348.294	716.103
351.669	1012.66
355.044	1050.21
358.418	781.917
361.793	553.118
365.168	431.796
368.543	474.038
371.918	650.79
375.293	890.867
378.667	1300
382.042	1791.75
385.417	2429.75
388.792	3096.85
392.167	3672.66
395.541	4157.34
398.916	4428.62
402.291	4586.78
405.666	4607.82
409.041	4471.85
412.416	4025.07
415.79	3484.16
419.165	2770.01
422.54	1991.14
425.915	1397.2
429.29	929.083
432.664	588.926
436.039	383.22
439.414	214.748
442.789	139.988
446.164	70.8669
449.538	14.9429
452.913	2.47192
456.288	10.5312
459.663	27.3127
463.038	13.2444
466.413	16.218
469.787	3.61719
473.162	5.84741
476.537	3.12598
479.912	31.2127
483.287	18.6809
486.661	29.6311
490.036	17.6489
493.411	7.46289
496.786	24.7642
500.161	12.7229
503.536	36.5083
506.91	44.7542
510.285	41.4102
513.66	84.458
517.035	61.169
520.41	150.675
523.784	202.938
527.159	268.709
530.534	453.697
533.909	530.675
537.284	668.171
540.659	762.157
544.033	775.908
547.408	752.294
550.783	699.383
554.158	684.347
557.533	710.867
560.908	676.576
564.282	707.935
567.657	645.665
571.032	596.687
574.407	574.165
577.782	504.913
581.156	361.564
584.531	257.26
587.906	204.924
591.281	147.872
594.656	127.539
598.03	109.37
601.405	148.002
604.78	253.966
608.155	364.768
611.53	391.104
614.905	647.097
618.279	835.757
621.654	1050.42
625.029	1215.51
628.404	1420.86
631.779	1593.9
635.154	1713.74
638.528	1753.36
641.903	1736.41
645.278	1692.7
648.653	1598.83
652.028	1366.37
655.402	1118.49
658.777	850.73
662.152	597.731
665.527	429.626
668.902	285.593
672.277	196.112
675.651	111.927
679.026	65.0237
682.401	22.9753
685.776	19.5588
689.151	19.9727
692.525	37.7891
695.9	7.3042
699.275	14.2727
702.65	4.5564
706.025	15.9751
709.399	0.297363
712.774	40.1526
716.149	2.44385
719.524	47.7644
722.899	41.6858
726.274	23.0593
729.648	104.3
733.023	58.623
736.398	107.777
739.773	98.7256
743.148	128.698
746.523	156.219
749.897	138.447
753.272	105.391
756.647	122.988
760.022	103.598
763.397	102.545
766.771	114.056
770.146	174.311
773.521	145.905
776.896	143.404
780.271	100.859
783.645	127.858
787.02	114.46
790.395	121.03
793.77	125.079
797.145	104.769
800.52	131.913
803.894	103.643
807.269	104.806
810.644	124.532
814.019	119.085
817.394	126.894
820.769	86.7849
824.143	99.5447
827.518	127.301
830.893	92.3726
834.268	105.493
837.643	69.6995
841.017	67.7656
844.392	69.4978
847.767	10.0396
851.142	52.9065
854.517	38.3484
857.891	24.3398
861.266	5.25488
864.641	9.94043
868.016	4.0061
871.391	8.88013
874.766	8.99634
878.14	11.6873
881.515	8.16773
884.89	25.9075
888.265	9.65625
891.64	36.0615
895.014	61.9236
898.389	76.4148
901.764	40.9353
905.139	110.4
908.514	123.782
911.889	157.099
915.263	175.244
918.638	175.313
922.013	152.697
925.388	136.682
928.763	140.434
932.138	119.102
935.512	98.1069
938.887	60.2317
942.262	61.4746
945.637	77.5984
949.012	95.7722
952.386	71.063
955.761	64.292
959.136	6.11353
962.511	38.5095
965.886	42.2146
969.26	37.5813
972.635	49.7888
976.01	91.0706
979.385	231.427
982.76	365.837
986.135	604.007
989.509	843.267
992.884	1083.55
996.259	1460.95
999.634	1898.69
1003.01	2448.92
1006.38	3187.42
1009.76	4216.15
1013.13	5455.17
1016.51	6522.42
1019.88	7086.01
1023.26	6529.81
1026.63	5009.86
1030.01	3521.94
1033.38	2445.68
1036.76	1853.31
1040.13	1597.23
1043.51	1486.52
1046.88	1394.12
1050.26	1316.84
1053.63	1041.6
1057.01	834.349
1060.38	659.198
1063.76	543.181
1067.13	425.816
1070.51	290.417
1073.88	162.139
1077.26	61.8066
1080.63	19.2488
1084	26.729
1087.38	24.6584
1090.75	8.2998
1094.13	16.6502
1097.5	19.3545
1100.88	46.2068
1104.25	141.224
1107.63	274.683
1111	260.2
1114.38	286.847
1117.75	276.281
1121.13	305.962
1124.5	314.313
1127.88	290.364
1131.25	313.682
1134.63	391.342
1138	613.018
1141.38	756.01
1144.75	955.21
1148.13	1067.82
1151.5	1172.67
1154.88	1102.11
1158.25	960.924
1161.62	745.838
1165	498.08
1168.38	334.268
1171.75	256.523
1175.12	120.811
1178.5	76.4736
1181.87	27.3831
1185.25	7.61939
1188.62	1.41064
1192	0.976318
1195.37	13.5325
1198.75	4.6228
1202.12	1.6084
1205.5	9.46753
1208.87	28.3872
1212.25	31.113
1215.62	17.9236
1219	55.5244
1222.37	31.3835
1225.75	27.0732
1229.12	26.6116
1232.5	57.1372
1235.87	53.0713
1239.25	60.4665
1242.62	81.1375
1246	57.5642
1249.37	49.9719
1252.74	61.9085
1256.12	87.0654
1259.49	93.6838
1262.87	43.4751
1266.24	73.3821
1269.62	51.9565
1272.99	60.9497
1276.37	44.9487
1279.74	66.1973
1283.12	19.1213
1286.49	40.084
1289.87	56.822
1293.24	31.2407
1296.62	1.46314
1299.99	39.866
1303.37	10.1284
