Measurement: Raman, 780 nm, unoriented, Raman Data Processed
Mineral: Waylandite
Rruff sample: R130361
Ideal chemistry: BiAl_3_(PO_4_)_2_(OH)_6_
Locality: Ngussa, Kivu, Zaire
Source: Rock Currier
Description: Colorless to pale brown crystals, associated with prismatic dark brown or bluish fluor-dravite
Raman shift (cm-1)	intensity
104.217	0
107.591	4.5672
110.966	0.033875
114.341	6.53162
117.716	7.383
121.091	14.7308
124.466	9.46979
127.84	2.57416
131.215	0.962891
134.59	0.22113
137.965	0.617798
141.34	6.40888
144.714	7.71997
148.089	4.43579
151.464	0.260864
154.839	0.89502
158.214	2.09711
161.589	4.53949
164.963	8.63507
168.338	12.0808
171.713	13.1265
175.088	14.8978
178.463	20.4232
181.838	26.4482
185.212	28.9612
188.587	26.7169
191.962	17.9642
195.337	9.74915
198.712	4.36761
202.086	3.54236
205.461	5.09589
208.836	12.0978
212.211	21.7515
215.586	32.8886
218.96	47.2833
222.335	60.8875
225.71	76.4088
229.085	92.3009
232.46	106.533
235.834	117.701
239.209	111.467
242.584	99.479
245.959	91.2366
249.334	89.2775
252.709	90.9648
256.083	97.6997
259.458	99.3107
262.833	81.9794
266.208	62.3124
269.583	44.8383
272.957	34.1902
276.332	22.6517
279.707	15.842
283.082	11.3458
286.457	7.0658
289.832	3.37244
293.206	2.66193
296.581	4.7287
299.956	0.398132
303.331	0.947388
306.706	0.907043
310.08	1.38751
313.455	0.692444
316.83	0.031128
320.205	1.21222
323.58	1.52438
326.954	0.878387
330.329	1.04855
333.704	0.121399
337.079	1.57773
340.454	0.175781
343.829	0.848846
347.203	0.668427
350.578	2.98788
353.953	1.48734
357.328	3.6152
360.703	3.54358
364.077	4.86105
367.452	7.1536
370.827	7.80987
374.202	6.5708
377.577	8.66873
380.952	11.6422
384.326	10.9521
387.701	10.6134
391.076	9.70422
394.451	7.71256
397.826	5.15466
401.2	7.09158
404.575	7.52081
407.95	4.37433
411.325	2.1105
414.7	5.20746
418.075	2.64243
421.449	3.92551
424.824	1.86008
428.199	1.7525
431.574	4.25293
434.949	5.17319
438.323	3.81204
441.698	4.39801
445.073	3.16589
448.448	5.92133
451.823	3.85358
455.197	6.02686
458.572	3.99164
461.947	5.06699
465.322	0.45462
468.697	3.56656
472.072	1.76752
475.446	2.69272
478.821	1.98541
482.196	0.527283
485.571	0.093231
488.946	0.896851
492.32	0.017151
495.695	2.73853
499.07	0.521179
502.445	4.08173
505.82	5.18131
509.195	5.62286
512.569	8.5293
515.944	12.4945
519.319	13.9842
522.694	16.7026
526.068	13.8505
529.443	10.0624
532.818	5.62885
536.193	1.51871
539.568	1.70447
542.943	1.67575
546.317	0.501801
549.692	1.03586
553.067	0.91449
556.442	0.757446
559.817	0.312164
563.192	1.49298
566.566	0.371552
569.941	2.97498
573.316	1.39621
576.691	3.44205
580.066	2.25821
583.44	3.31848
586.815	4.14111
590.19	3.33713
593.565	2.14478
596.94	3.31125
600.314	4.11523
603.689	4.40311
607.064	4.74136
610.439	6.06052
613.814	3.23514
617.188	4.09164
620.563	3.67767
623.938	5.80411
627.313	2.75067
630.688	3.3429
634.063	3.12729
637.437	4.91278
640.812	1.63294
644.187	3.82413
647.562	2.42227
650.937	2.12643
654.312	1.59149
657.686	4.00485
661.061	3.5365
664.436	1.98718
667.811	1.95898
671.186	2.58246
674.56	1.5983
677.935	0.509766
681.31	0.220917
684.685	3.15903
688.06	1.0968
691.434	1.72888
694.809	0.494385
698.184	0.848999
701.559	1.97168
704.934	0.883423
708.308	2.05042
711.683	1.14081
715.058	3.43411
718.433	2.76907
721.808	3.0997
725.183	3.56668
728.557	1.92593
731.932	3.83417
735.307	3.66562
738.682	1.78305
742.057	2.4364
745.432	2.00684
748.806	0.688385
752.181	2.76984
755.556	3.70645
758.931	1.59106
762.306	2.08627
765.68	3.56311
769.055	1.05756
772.43	2.69446
775.805	0.758667
779.18	1.36096
782.554	1.8884
785.929	1.88373
789.304	0.814453
792.679	1.49475
796.054	2.12979
799.428	2.43506
802.803	0.242493
806.178	1.67557
809.553	0.744263
812.928	0.065094
816.303	0.130615
819.677	1.25189
823.052	1.26227
826.427	2.08881
829.802	3.28198
833.177	3.6824
836.552	2.38525
839.926	2.37091
843.301	2.94901
846.676	2.86716
850.051	2.86655
853.426	2.92181
856.8	1.5585
860.175	2.49219
863.55	2.85843
866.925	3.8128
870.3	3.83139
873.674	4.6333
877.049	3.02982
880.424	3.96637
883.799	3.8815
887.174	3.86386
890.548	1.19464
893.923	2.35712
897.298	2.11499
900.673	1.37497
904.048	2.09119
907.423	1.63934
910.797	0.088837
914.172	0.547913
917.547	1.35297
920.922	0.706024
924.297	0.183136
927.671	2.00983
931.046	4.61252
934.421	0.85318
937.796	0.359558
941.171	0.622589
944.545	1.40405
947.92	1.19864
951.295	1.05655
954.67	1.1087
958.045	0.910706
961.42	0.34494
964.794	0.207672
968.169	1.23044
971.544	0.976074
974.919	0.401703
978.294	2.1142
981.668	2.84903
985.043	1.35306
988.418	4.78125
991.793	4.06833
995.168	3.49014
998.543	2.53894
1001.92	4.67303
1005.29	2.78015
1008.67	5.23782
1012.04	2.70987
1015.42	4.67407
1018.79	4.40597
1022.17	4.6376
1025.54	3.94797
1028.92	4.48264
1032.29	3.06534
1035.67	0.575684
1039.04	2.27008
1042.41	3.06232
1045.79	1.16501
1049.16	1.76413
1052.54	2.59927
1055.91	3.82465
1059.29	2.47421
1062.66	2.70987
1066.04	0.622162
1069.41	0.10788
1072.79	0.044891
1076.16	1.19696
1079.54	1.19232
1082.91	0.533844
1086.29	0.549103
1089.66	0.691254
1093.04	3.37918
1096.41	1.24988
1099.79	2.10681
1103.16	0.739777
1106.54	2.21057
1109.91	2.73102
1113.29	2.30292
1116.66	2.77325
1120.04	1.63251
1123.41	1.35773
1126.79	0.464783
1130.16	1.52628
1133.54	1.28683
1136.91	1.15216
1140.29	1.78919
1143.66	0.030731
1147.03	1.49948
1150.41	0.473389
1153.78	2.74939
1157.16	1.96847
1160.53	1.10977
1163.91	1.75916
1167.28	2.94751
1170.66	2.61639
1174.03	3.22446
1177.41	2.86841
1180.78	2.70663
1184.16	1.57999
1187.53	3.638
1190.91	2.67398
1194.28	2.02033
1197.66	2.00998
1201.03	4.52469
1204.41	2.90848
1207.78	2.03882
1211.16	1.54535
1214.53	1.7355
1217.91	2.11621
1221.28	2.14688
1224.65	2.5705
1228.03	2.20303
1231.4	0.100494
1234.78	1.68961
1238.15	2.19565
1241.53	1.64127
1244.9	1.00736
1248.28	0.424133
1251.65	2.25464
1255.03	1.67731
1258.4	1.62494
1261.78	0.174896
1265.15	4.16202
1268.53	1.77512
1271.9	1.10007
1275.28	2.4429
1278.65	0.746948
1282.03	0.028137
