Measurement: Raman, 780 nm, unoriented, Raman Data Processed
Mineral: Weddellite
Rruff sample: R110123
Ideal chemistry: CaC_2_O_4_2H_2_O
Locality: Tucson, Arizona, USA
Source: Gordie Downs
Description: White to colorless spheroidal crystals found in the pith of a living Saguaro cactus
Raman shift (cm-1)	intensity
136.44	0
139.333	0.8526
142.226	13.1071
145.119	32.7097
148.011	58.0027
150.904	82.8227
153.797	106.846
156.689	128.437
159.582	150.172
162.475	150.706
165.367	121.915
168.26	85.673
171.153	78.1709
174.046	96.4914
176.938	133.579
179.831	185.957
182.724	246.908
185.616	292.887
188.509	304.307
191.402	269.31
194.294	209.732
197.187	149.92
200.08	108.279
202.972	79.938
205.865	64.6581
208.758	51.3103
211.651	47.7717
214.543	47.7977
217.436	45.9659
220.329	42.6157
223.221	38.319
226.114	30.8644
229.007	22.3318
231.899	13.0244
234.792	5.03998
237.685	1.32947
240.578	3.52138
243.47	5.74348
246.363	2.12025
249.256	0.626022
252.148	0.702881
255.041	4.34535
257.934	13.0246
260.827	22.168
263.719	27.0681
266.612	25.8292
269.505	21.3019
272.397	16.0936
275.29	14.7521
278.183	7.931
281.075	5.92529
283.968	4.68007
286.861	4.94241
289.753	4.51141
292.646	5.18508
295.539	4.52616
298.432	4.34631
301.324	3.56205
304.217	1.70126
307.11	1.36333
310.002	1.17327
312.895	1.01016
315.788	1.32443
318.68	2.6619
321.573	1.86747
324.466	3.64923
327.359	3.61568
330.251	4.62103
333.144	4.57601
336.037	4.57841
338.929	4.7328
341.822	4.95279
344.715	4.76254
347.608	3.54996
350.5	4.12187
353.393	2.66441
356.286	3.95998
359.178	2.92894
362.071	1.05347
364.964	1.40932
367.856	0.690163
370.749	2.08765
373.642	1.72402
376.534	1.27354
379.427	1.59821
382.32	0.541
385.213	1.36412
388.105	0.733467
390.998	1.39288
393.891	1.91533
396.783	1.14159
399.676	0.356667
402.569	1.08128
405.462	0.0214114
408.354	0.695732
411.247	0.379761
414.14	0.544495
417.032	0.507439
419.925	0.017395
422.818	0.476868
425.71	1.64804
428.603	0.119331
431.496	0.153488
434.389	1.39504
437.281	1.05257
440.174	1.30936
443.067	1.33801
445.959	1.06625
448.852	2.7344
451.745	1.96397
454.637	1.66199
457.53	1.81934
460.423	3.64842
463.315	3.63969
466.208	2.36594
469.101	3.11556
471.994	4.50326
474.886	4.4577
477.779	5.66154
480.672	7.68491
483.564	10.0368
486.457	13.5931
489.35	16.5324
492.243	22.9962
495.135	32.7051
498.028	44.2201
500.921	57.7568
503.813	70.2717
506.706	74.579
509.599	65.4111
512.491	48.5489
515.384	32.9496
518.277	22.9997
521.169	13.3268
524.062	9.53188
526.955	7.69734
529.848	4.26453
532.74	2.52727
535.633	0.819267
538.526	0.223785
541.418	0.364151
544.311	0.439583
547.204	0.682038
550.096	0.100609
552.989	0.329437
555.882	0.500832
558.775	1.60795
561.667	1.20749
564.56	2.68131
567.453	3.86144
570.345	4.6463
573.238	4.90724
576.131	5.43368
579.024	6.40961
581.916	5.05684
584.809	8.84091
587.702	11.2241
590.594	11.0656
593.487	10.5295
596.38	10.7377
599.272	9.09007
602.165	9.89745
605.058	9.33189
607.951	8.72698
610.843	6.73421
613.736	6.29491
616.629	5.08233
619.521	3.98379
622.414	3.98639
625.307	2.17481
628.199	2.47666
631.092	2.17496
633.985	1.9987
636.878	1.16354
639.77	1.65221
642.663	1.52238
645.556	0.534584
648.448	0.00563
651.341	0.431419
654.234	0.809114
657.126	1.03923
660.019	1.49098
662.912	0.68116
665.804	0.042801
668.697	0.364052
671.59	0.11113
674.483	0.815369
677.375	0.704865
680.268	0.77726
683.161	1.17729
686.053	0.475777
688.946	1.58545
691.839	0.793694
694.731	0.878471
697.624	1.48482
700.517	1.01103
703.41	1.9025
706.302	2.9718
709.195	3.06699
712.088	2.91657
714.98	3.03417
717.873	4.63489
720.766	4.05844
723.659	4.30208
726.551	5.68131
729.444	2.8494
732.337	3.71957
735.229	3.71134
738.122	3.70364
741.015	2.76976
743.907	2.96175
746.8	2.18534
749.693	2.57749
752.586	1.67175
755.478	1.7271
758.371	2.27659
761.264	1.02609
764.156	1.56644
767.049	1.58605
769.942	1.30555
772.834	0.939369
775.727	1.30376
778.62	1.05154
781.513	0.181396
784.405	0.07077
787.298	0.486809
790.191	0.443924
793.083	0.19989
795.976	0.272354
798.869	0.439735
801.761	1.13511
804.654	1.51806
807.547	2.16748
810.439	1.81192
813.332	1.20506
816.225	1.60377
819.118	1.03162
822.01	1.88747
824.903	1.45865
827.796	2.30389
830.688	1.27142
833.581	2.35318
836.474	1.09418
839.366	1.17943
842.259	1.15173
845.152	1.82766
848.045	2.39964
850.937	2.21367
853.83	4.10676
856.723	3.22574
859.615	2.63492
862.508	4.12497
865.401	6.25999
868.293	12.4866
871.186	14.2278
874.079	5.40051
876.972	3.04062
879.864	4.11269
882.757	3.54823
885.65	6.0302
888.542	8.28425
891.435	13.3924
894.328	21.4151
897.221	34.2389
900.113	58.6229
903.006	98.6072
905.899	152.917
908.791	198.903
911.684	195.861
914.577	135.876
917.469	75.5897
920.362	39.3531
923.255	21.5623
926.148	12.0608
929.04	6.87483
931.933	3.80144
934.826	1.99284
937.718	0.784012
940.611	1.11965
943.504	0.481728
946.396	0.078827
949.289	0.282059
952.182	0.434227
955.074	0.434128
957.967	0.085983
960.86	0.525711
963.753	0.559502
966.645	1.00141
969.538	0.86647
972.431	0.381607
975.323	0.504379
978.216	0.460472
981.109	0.066689
984.001	0.526909
986.894	0.238525
989.787	1.76302
992.68	0.287773
995.572	0.983002
998.465	0.695114
1001.36	1.23132
1004.25	0.466377
1007.14	0.241646
1010.04	1.17905
1012.93	0.799858
1015.82	0.446068
1018.71	1.79359
1021.61	1.04186
1024.5	1.35894
1027.39	0.179642
1030.29	0.578033
1033.18	0.409195
1036.07	1.55177
1038.96	0.909691
1041.86	1.00244
1044.75	1.26654
1047.64	1.28635
1050.53	1.27341
1053.43	0.171669
1056.32	0.39711
1059.21	0.081375
1062.1	0.069824
1065	0.456436
1067.89	0.316406
1070.78	1.23841
1073.67	1.31735
1076.57	1.45679
1079.46	0.961464
1082.35	0.847687
1085.25	1.76063
1088.14	2.09638
1091.03	2.28079
1093.92	2.26009
1096.82	1.93839
1099.71	0.890572
1102.6	1.13079
1105.49	0.958702
1108.39	0.843567
1111.28	1.10008
1114.17	0.726013
1117.07	1.64334
1119.96	0.988907
1122.85	2.27988
1125.74	0.813614
1128.64	0.818504
1131.53	0.886627
1134.42	0.601494
1137.32	1.06051
1140.21	1.15222
1143.1	1.46395
1145.99	1.07667
1148.88	1.22048
1151.78	1.0449
1154.67	0.568214
1157.56	0.732979
1160.46	1.39732
1163.35	0.737946
1166.24	0.84935
1169.13	0.589508
1172.03	1.51843
1174.92	0.366486
1177.81	0.880661
1180.7	0.753738
1183.6	1.05981
1186.49	1.28374
1189.38	0.861656
1192.28	0.097366
1195.17	0.892136
1198.06	0.978104
1200.95	0.829803
1203.85	0.253105
1206.74	0.392334
1209.63	0.8713
1212.53	0.042084
1215.42	0.678703
1218.31	0.299202
1221.2	0.144142
1224.1	0.727821
1226.99	0.96315
1229.88	1.08524
1232.77	0.691406
1235.67	1.09337
1238.56	1.21033
1241.45	0.262825
1244.34	1.08623
1247.24	0.294319
1250.13	0.861534
1253.02	0.915833
1255.91	1.16674
1258.81	0.774529
1261.7	1.1685
1264.59	1.64804
1267.49	0.539536
1270.38	0.463455
1273.27	0.511238
1276.16	1.06862
1279.06	0.432411
1281.95	0.103821
1284.84	0.404167
