Measurement: Raman, 780 nm, unoriented, Raman Data Processed
Mineral: Weddellite
Rruff sample: R050242
Ideal chemistry: CaC_2_O_4_2H_2_O
Locality: Biggs, Wasco County, Oregon, USA
Source: Marcus Origlieri
Description: Isolated yellowish brown crystal
Measured chemistry: Ca_1.00_(C_2_O_4_)Â·2H_2_O ; C not measured
Raman shift (cm-1)	intensity
231.203	0
234.096	3.93213
236.988	9.74365
239.881	4.66894
242.774	1.24268
245.667	8.17505
248.559	8.55835
251.452	17.5762
254.345	19.7039
257.237	30.9268
260.13	45.1553
263.023	47.1553
265.916	54.6702
268.808	45.8787
271.701	36.6001
274.594	18.1492
277.486	21.085
280.379	10.8127
283.272	15.2021
286.164	0.147949
289.057	0.259766
291.95	3.99146
294.842	1.06811
297.735	6.81567
300.628	10.4565
303.521	2.53931
306.413	0.578369
309.306	9.08057
312.199	8.73462
315.091	14.8225
317.984	24.1941
320.877	15.4902
323.769	18.8403
326.662	15.0894
329.555	18.7239
332.448	21.1614
335.34	22.0745
338.233	24.2231
341.126	20.9341
344.018	15.8323
346.911	12.2344
349.804	20.168
352.697	14.7263
355.589	18.2827
358.482	12.5059
361.375	7.68604
364.267	12.647
367.16	9.59937
370.053	13.1999
372.945	11.3467
375.838	2.42285
378.731	3.57007
381.623	2.88208
384.516	0.262207
387.409	1.98608
390.302	0.121094
393.194	4.97803
396.087	7.02515
398.98	12.0303
401.872	7.90479
404.765	4.32983
407.658	3.25708
410.55	9.67627
413.443	13.6929
416.336	9.65625
419.229	5.21191
422.121	7.93677
425.014	12.7488
427.907	14.3565
430.799	18.5896
433.692	17.8015
436.585	15.9824
439.478	11.6006
442.37	11.687
445.263	19.7322
448.156	16.8154
451.048	18.6521
453.941	14.8884
456.834	13.8538
459.726	15.5906
462.619	21.0679
465.512	28.6958
468.404	31.0891
471.297	29.8535
474.19	25.9004
477.083	29.064
479.975	36.604
482.868	46.2158
485.761	74.5425
488.653	82.7786
491.546	109.565
494.439	129.876
497.332	147.439
500.224	171.417
503.117	192.575
506.01	194.84
508.902	159.531
511.795	115.041
514.688	81.6226
517.58	54.8789
520.473	29.2493
523.366	18.9114
526.259	9.05957
529.151	8.79907
532.044	7.84644
534.937	0.938721
537.829	2.11328
540.722	0.396484
543.615	1.05273
546.507	1.00073
549.4	2.74243
552.293	1.18091
555.186	11.5444
558.078	16.7214
560.971	11.1519
563.864	7.3064
566.756	7.61865
569.649	14.9878
572.542	17.3132
575.434	17.6316
578.327	16.8308
581.22	22.134
584.112	16.4373
587.005	32.1843
589.898	30.1902
592.79	39.0776
595.683	34.2776
598.576	34.1668
601.469	24.7737
604.361	29.5684
607.254	25.2927
610.147	27.5349
613.039	17.6406
615.932	21.812
618.825	13.0383
621.717	16.0776
624.61	8.91748
627.503	7.57324
630.396	2.12402
633.288	5.3584
636.181	9.35669
639.074	11.0767
641.966	4.6875
644.859	3.14502
647.752	11.8479
650.644	3.46216
653.537	4.96826
656.43	2.43408
659.323	0.687256
662.215	2.51416
665.108	1.03686
668.001	4.13745
670.893	3.22632
673.786	4.42896
676.679	5.27734
679.572	6.37085
682.464	5.19946
685.357	3.33935
688.25	2.69629
691.142	6.65991
694.035	3.89062
696.928	0.495605
699.82	6.28833
702.713	2.22949
705.606	7.51562
708.499	14.123
711.391	12.6987
714.284	10.4438
717.177	11.7913
720.069	12.4595
722.962	18.0891
725.855	6.89209
728.747	5.1062
731.64	10.3938
734.533	14.9692
737.426	16.7156
740.318	10.9153
743.211	9.46631
746.104	9.87109
748.996	4.81982
751.889	13.4075
754.782	3.80664
757.674	2.69092
760.567	1.29272
763.46	11.0115
766.352	1.96973
769.245	2.01709
772.138	3.12622
775.031	4.96314
777.923	1.23755
780.816	6.31226
783.709	8.29688
786.601	3.41821
789.494	4.65991
792.387	5.61206
795.279	10.5857
798.172	19.0364
801.065	13.1052
803.958	12.897
806.85	21.1238
809.743	20.8023
812.636	23.0896
815.528	10.9126
818.421	8.48193
821.314	9.96387
824.207	12.761
827.099	5.84009
829.992	13.4187
832.885	14.9758
835.777	7.19751
838.67	7.58374
841.563	8.16089
844.455	1.1687
847.348	10.5984
850.241	2.71875
853.134	9.50415
856.026	5.84766
858.919	10.2227
861.812	13.8362
864.704	14.0955
867.597	27.1558
870.49	28.803
873.382	9.4314
876.275	4.02539
879.168	1.38501
882.061	2.79736
884.953	12.3838
887.846	25.3796
890.739	49.9822
893.631	79.9453
896.524	124.676
899.417	169.228
902.309	222.738
905.202	268.916
908.095	297.12
910.987	279.367
913.88	190.44
916.773	104.516
919.666	54.6926
922.558	37.0327
925.451	11.7859
928.344	12.2642
931.236	7.32519
934.129	2.02124
937.022	3.03272
939.914	1.80981
942.807	3.05054
945.7	7.72925
948.593	5.80469
951.485	2.38013
954.378	7.32935
957.271	3.57788
960.163	5.9187
963.056	10.3232
965.949	1.59155
968.841	8.58301
971.734	4.15674
974.627	10.4697
977.52	1.56763
980.412	0.20459
983.305	2.21777
986.198	3.84619
989.09	3.81836
991.983	4.75317
994.876	2.98633
997.769	6.09204
1000.66	4.22852
1003.55	4.30737
1006.45	8.72217
1009.34	6.03149
1012.23	5.49365
1015.12	3.64258
1018.02	8.53955
1020.91	15.0422
1023.8	9.84058
1026.7	8.49487
1029.59	10.7234
1032.48	6.97461
1035.37	9.58887
1038.27	15.7356
1041.16	11.574
1044.05	6.29663
1046.94	2.79272
1049.84	0.862793
1052.73	4.78735
1055.62	9.09253
1058.52	7.99243
1061.41	21.6316
1064.3	20.5735
1067.19	8.45752
1070.09	16.2476
1072.98	12.4497
1075.87	7.78345
1078.76	9.66455
1081.66	17.1816
1084.55	10.3728
1087.44	15.2703
1090.34	18.3721
1093.23	10.2117
1096.12	12.3521
1099.01	6.927
1101.91	4.10254
1104.8	7.90991
1107.69	0.115723
1110.58	0.411377
1113.48	3.69897
1116.37	4.28369
1119.26	0.775146
1122.15	5.65771
1125.05	3.10791
1127.94	0.354004
1130.83	1.78418
1133.72	1.3269
1136.62	10.3267
1139.51	2.70386
1142.4	6.61206
1145.3	2.76147
1148.19	5.2251
1151.08	7.84351
1153.97	3.32446
1156.87	10.657
1159.76	7.26807
1162.65	9.7793
1165.55	9.5083
1168.44	8.57544
1171.33	13.2712
1174.22	18.0271
1177.12	10.3596
1180.01	10.3384
1182.9	9.67334
1185.79	8.04761
1188.69	11.5867
1191.58	10.2095
1194.47	9.63721
1197.37	14.1765
1200.26	3.47974
1203.15	15.1873
1206.04	15.6255
1208.94	2.66724
1211.83	1.94238
1214.72	4.73975
1217.61	3.15991
1220.51	1.79565
1223.4	5.5874
1226.29	8.47119
1229.18	14.2947
1232.08	11.3198
1234.97	11.9795
1237.86	10.3171
1240.76	12.0779
1243.65	12.2585
1246.54	15.0293
1249.43	8.19971
1252.33	3.73071
1255.22	4.68481
1258.11	8.40552
1261	2.81885
1263.9	6.21094
1266.79	5.70752
1269.68	9.69995
1272.58	6.06934
1275.47	0.207764
1278.36	5.81714
1281.25	1.82202
1284.15	0.030518
