Measurement: Raman, 780 nm, unoriented, Raman Data Processed
Mineral: Weeksite
Rruff sample: R050235
Ideal chemistry: K_2_(UO_2_)_2_(Si_5_O_13_)4H_2_O
Locality: Autunite #8 claim, Thomas Range, Juab County, Utah, USA
Source: Marcus Origlieri
Description: Radiating clusters of yellow acicular crystals
Raman shift (cm-1)	intensity
127.28	0
130.173	16.8142
133.066	2.83545
135.958	10.029
138.851	18.0737
141.744	18.3206
144.636	29.9338
147.529	40.4343
150.422	54.6313
153.315	65.5769
156.207	74.6121
159.1	68.3909
161.993	57.2285
164.885	38.9878
167.778	33.2344
170.671	30.5903
173.563	30.519
176.456	15.1882
179.349	22.437
182.242	34.5081
185.134	40.5935
188.027	61.8496
190.92	65.342
193.812	85.981
196.705	106.509
199.598	121.666
202.49	143.243
205.383	148.302
208.276	161.312
211.168	158.623
214.061	144.569
216.954	124.011
219.847	93.9768
222.739	65.5542
225.632	40.7415
228.525	29.0166
231.417	11.4182
234.31	2.47998
237.203	0.357422
240.095	3.68555
242.988	0.605957
245.881	3.23926
248.774	11.0828
251.666	0.97583
254.559	7.42749
257.452	9.73852
260.344	22.0252
263.237	26.0996
266.13	28.2512
269.022	17.4314
271.915	13.4934
274.808	6.09814
277.701	9.927
280.593	19.3074
283.486	21.5169
286.379	17.9544
289.271	23.4863
292.164	30.6196
295.057	25.8828
297.95	30.1482
300.842	19.1404
303.735	15.405
306.628	20.6548
309.52	17.5847
312.413	4.21948
315.306	24.6968
318.198	8.39429
321.091	11.8882
323.984	9.58252
326.877	16.668
329.769	22.9851
332.662	16.8098
335.555	20.0127
338.447	34.0171
341.34	23.3137
344.233	17.3711
347.125	24.7314
350.018	21.551
352.911	14.8096
355.803	14.2004
358.696	16.9927
361.589	12.5581
364.482	14.1528
367.374	2.09277
370.267	23.353
373.16	11.4453
376.052	3.90161
378.945	0.098145
381.838	6.98804
384.731	1.45581
387.623	0.646973
390.516	2.22266
393.409	4.02856
396.301	3.65112
399.194	3.9292
402.087	1.5056
404.979	0.971924
407.872	4.44946
410.765	3.67188
413.658	3.14307
416.55	7.72461
419.443	12.6699
422.336	6.85596
425.228	11.9058
428.121	7.9292
431.014	16.157
433.906	8.59058
436.799	12.5928
439.692	5.68896
442.584	14.1062
445.477	7.15283
448.37	13.8672
451.263	16.3416
454.155	23.4089
457.048	13.9385
459.941	14.1606
462.833	23.5977
465.726	25.0987
468.619	28.1669
471.512	30.3779
474.404	42.4624
477.297	37.0692
480.19	34.6305
483.082	27.2782
485.975	19.376
488.868	20.4531
491.76	18.6433
494.653	21.9291
497.546	19.0198
500.438	25.0245
503.331	22.1577
506.224	21.299
509.117	26.8148
512.009	17.3846
514.902	16.1626
517.795	18.6081
520.687	14.6656
523.58	13.6154
526.473	12.443
529.365	5.60644
532.258	0.781616
535.151	8.40198
538.044	6.72656
540.936	6.32727
543.829	3.70093
546.722	0.46875
549.614	2.52673
552.507	1.15698
555.4	8.7627
558.293	7.75574
561.185	5.17578
564.078	7.81628
566.971	9.44898
569.863	12.0859
572.756	10.5337
575.649	18.1549
578.541	11.2278
581.434	12.2024
584.327	3.27637
587.22	15.5615
590.112	10.4391
593.005	4.46887
595.898	5.50879
598.79	9.18567
601.683	5.06457
604.576	11.2213
607.468	4.45667
610.361	4.54968
613.254	2.40955
616.146	4.12891
619.039	5.42371
621.932	9.16699
624.825	4.61121
627.717	3.07361
630.61	10.2385
633.503	10.1522
636.395	6.83313
639.288	8.76245
642.181	6.86365
645.073	4.70459
647.966	5.06213
650.859	13.1537
653.752	9.21668
656.644	11.1238
659.537	4.63989
662.43	3.8103
665.322	4.54382
668.215	7.3103
671.108	7.04236
674	6.61877
676.893	5.9823
679.786	8.90051
682.679	3.38477
685.571	0.064209
688.464	7.24927
691.357	0.711792
694.249	1.172
697.142	5.15637
700.035	7.7406
702.928	3.2749
705.82	3.62659
708.713	0.424316
711.606	1.75037
714.498	0.501465
717.391	2.17004
720.284	4.68189
723.176	1.68152
726.069	1.03015
728.962	3.90332
731.855	15.5386
734.747	8.66223
737.64	17.7625
740.533	19.6469
743.425	19.8604
746.318	18.1258
749.211	24.6345
752.103	14.9524
754.996	14.9631
757.889	12.2376
760.782	18.1431
763.674	22.9379
766.567	26.9756
769.46	37.5803
772.352	44.9948
775.245	60.9573
778.138	86.6539
781.03	101.376
783.923	127.308
786.816	155.998
789.708	187.634
792.601	235.137
795.494	291.713
798.387	343.647
801.279	417.126
804.172	509.943
807.065	607.329
809.957	684.71
812.85	679.352
815.743	556.654
818.635	372.123
821.528	233.323
824.421	138.031
827.314	88.8925
830.206	61.3771
833.099	45.3768
835.992	30.4136
838.884	17.5266
841.777	11.6071
844.67	7.77686
847.562	3.83069
850.455	4.72705
853.348	6.66809
856.241	0.383179
859.133	2.18494
862.026	4.71509
864.919	1.41589
867.811	2.22241
870.704	2.49194
873.597	6.09155
876.49	1.70837
879.382	2.9353
882.275	0.303345
885.168	5.08325
888.06	1.05603
890.953	2.20599
893.846	2.39282
896.738	2.69043
899.631	2.72253
902.524	0.330444
905.417	4.92358
908.309	6.33521
911.202	3.125
914.095	6.72961
916.987	13.4296
919.88	13.8971
922.773	10.6442
925.665	19.1683
928.558	32.5613
931.451	36.5856
934.343	45.4971
937.236	57.6323
940.129	59.5408
943.022	60.2028
945.914	58.9979
948.807	52.2723
951.7	55.2773
954.592	36.1954
957.485	28.3762
960.378	24.4344
963.27	17.9098
966.163	10.4012
969.056	13.8118
971.949	6.3103
974.841	3.7865
977.734	0.326294
980.627	3.70166
983.519	6.33643
986.412	6.03613
989.305	13.1895
992.197	5.02222
995.09	10.9432
997.983	11.2794
1000.88	16.2021
1003.77	23.2939
1006.66	23.2347
1009.55	21.1995
1012.45	15.5678
1015.34	18.24
1018.23	15.1855
1021.12	10.0582
1024.02	4.65808
1026.91	11.4059
1029.8	7.42578
1032.69	5.77527
1035.59	5.4176
1038.48	0.919922
1041.37	7.2428
1044.27	1.83057
1047.16	2.90393
1050.05	0.790161
1052.94	0.672974
1055.84	2.73486
1058.73	3.9989
1061.62	7.06018
1064.52	5.00537
1067.41	5.12952
1070.3	5.46106
1073.19	0.814697
1076.09	3.53772
1078.98	0.432495
1081.87	4.7782
1084.76	4.01392
1087.66	6.2406
1090.55	8.04114
1093.44	7.77307
1096.34	4.31128
1099.23	0.024414
1102.12	5.27161
1105.01	4.67688
1107.91	7.19177
1110.8	8.18579
1113.69	0.313965
1116.58	1.26856
1119.48	1.79858
1122.37	5.50146
1125.26	5.35608
1128.15	7.20544
1131.05	2.20691
1133.94	8.79871
1136.83	10.5511
1139.72	7.18811
1142.62	8.58972
1145.51	10.679
1148.4	12.4005
1151.3	15.1306
1154.19	15.9199
1157.08	14.3077
1159.97	13.999
1162.87	17.1904
1165.76	11.6438
1168.65	17.1666
1171.55	12.4348
1174.44	14.4166
1177.33	12.1123
1180.22	10.6139
1183.12	10.5405
1186.01	14.4446
1188.9	12.7058
1191.79	13.9645
1194.69	11.5542
1197.58	10.6404
1200.47	5.276
1203.37	9.35803
1206.26	10.5759
1209.15	6.64905
1212.04	6.20312
1214.93	11.8605
1217.83	8.17639
1220.72	5.19641
1223.61	4.46338
1226.51	17.4153
1229.4	6.87042
1232.29	5.57739
1235.18	1.79895
1238.08	3.78723
1240.97	1.55621
1243.86	1.44226
1246.76	1.03272
1249.65	1.96918
1252.54	5.62921
1255.43	1.08575
1258.33	2.49872
1261.22	9.98358
1264.11	7.52454
1267	6.98144
1269.9	6.00409
1272.79	10.0083
1275.68	0.09375
1278.58	0
