Measurement: Raman, 780 nm, unoriented, Raman Data Processed
Mineral: Weloganite
Rruff sample: R050217
Ideal chemistry: Na_2_Sr_3_Zr(CO_3_)_6_3H_2_O
Locality: Francon Quarry, Montréal, Québec, Canada
Source: Marcus Origlieri
Description: Tan colored tapered hexagonal single crystals
Measured chemistry: Na_2.00_(Sr_2.93_Ca_0.07_)_Σ=3_(Zr_0.90_Hf_0.10_)_Σ=1_(CO_3_)_6_·3H_2_O
Raman shift (cm-1)	intensity
122.245	0
125.62	12.6689
128.994	63.4597
132.369	124.308
135.744	176.119
139.119	243.5
142.494	297.126
145.869	287.463
149.243	321.197
152.618	302.838
155.993	246.821
159.368	146.01
162.743	44.0992
166.117	17.2071
169.492	7.80572
172.867	4.20975
176.242	3.70573
179.617	5.34694
182.991	0.415512
186.366	8.31484
189.741	18.7115
193.116	26.0109
196.491	28.6109
199.865	39.0354
203.24	55.931
206.615	81.1125
209.99	104.403
213.365	130.382
216.74	154.723
220.114	181.041
223.489	208.802
226.864	219.847
230.239	199.938
233.614	164.998
236.988	147.114
240.363	122.52
243.738	97.5104
247.113	77.8608
250.488	53.1229
253.863	40.6781
257.237	44.3886
260.612	45.956
263.987	43.7693
267.362	42.5177
270.737	42.3354
274.111	45.7814
277.486	49.424
280.861	40.3357
284.236	23.3089
287.611	9.19421
290.986	0.690056
294.36	4.9241
297.735	4.34945
301.11	3.08923
304.485	9.62042
307.86	18.9813
311.235	28.0947
314.609	35.2066
317.984	44.2874
321.359	53.0793
324.734	58.682
328.109	69.2314
331.483	89.6998
334.858	123.338
338.233	160.617
341.608	194.519
344.983	235
348.357	272.158
351.732	296.572
355.107	280.282
358.482	215.012
361.857	157.335
365.231	122.025
368.606	92.9377
371.981	70.7667
375.356	49.6676
378.731	32.7519
382.106	19.4814
385.48	11.1368
388.855	6.10689
392.23	3.30746
395.605	1.53291
398.98	0.158577
402.354	0.079559
405.729	0.631172
409.104	0.225967
412.479	0.624115
415.854	0.43047
419.229	0.329895
422.603	0.649445
425.978	0.060883
429.353	0.186054
432.728	0.276936
436.103	0.744839
439.478	0.440277
442.852	1.20355
446.227	2.65848
449.602	0.448196
452.977	1.49968
456.352	1.72734
459.726	2.52459
463.101	1.71182
466.476	2.41424
469.851	2.49169
473.226	3.06415
476.601	2.49588
479.975	2.90566
483.35	2.88198
486.725	2.91629
490.1	2.49611
493.474	2.8401
496.849	2.05117
500.224	2.30126
503.599	2.73595
506.974	2.13094
510.349	2.26572
513.723	3.41036
517.098	1.26628
520.473	2.51443
523.848	3.08956
527.223	2.65524
530.597	3.93233
533.972	5.32994
537.347	6.08543
540.722	5.87465
544.097	4.76792
547.472	6.10223
550.846	5.61791
554.221	5.81193
557.596	5.49883
560.971	4.61198
564.346	3.63638
567.721	2.56038
571.095	2.22436
574.47	1.20255
577.845	0.744015
581.22	0.216663
584.595	0.389267
587.969	0.296757
591.344	0.620975
594.719	0.320286
598.094	0.534294
601.469	0.621674
604.843	0.146763
608.218	0.242344
611.593	0.514538
614.968	0.229797
618.343	0.840134
621.717	0.805676
625.092	1.08213
628.467	2.04601
631.842	2.37753
635.217	2.26959
638.592	2.4618
641.966	2.92433
645.341	3.53026
648.716	3.89946
652.091	2.97695
655.466	2.15291
658.841	5.4796
662.215	11.8082
665.59	20.7073
668.965	25.3
672.34	33.1916
675.715	44.8192
679.089	60.2358
682.464	38.9741
685.839	19.2112
689.214	12.2279
692.589	9.73442
695.963	7.15117
699.338	5.67956
702.713	1.42582
706.088	0.583939
709.463	1.82044
712.838	13.2734
716.212	16.3764
719.587	29.9976
722.962	43.3886
726.337	63.443
729.712	65.5694
733.087	68.2986
736.461	74.9093
739.836	60.2327
743.211	64.9988
746.586	87.9031
749.961	91.6995
753.335	60.5149
756.71	53.1169
760.085	65.1564
763.46	51.5627
766.835	14.4061
770.21	3.66535
773.584	1.21505
776.959	0.345413
780.334	0.092674
783.709	0.389282
787.084	0.628654
790.458	0.690502
793.833	0.096527
797.208	0.306698
800.583	0.748402
803.958	0.405212
807.332	0.526592
810.707	0.870033
814.082	1.39134
817.457	1.53602
820.832	1.50698
824.207	1.79554
827.581	1.91836
830.956	3.72701
834.331	3.05157
837.706	3.51009
841.081	3.86543
844.455	2.70023
847.83	3.27252
851.205	3.93412
854.58	4.49473
857.955	4.88157
861.33	5.24395
864.704	6.70314
868.079	6.75498
871.454	6.16556
874.829	2.0039
878.204	1.04825
881.578	1.31549
884.953	0.759548
888.328	0.849718
891.703	1.03712
895.078	1.24094
898.452	1.31236
901.827	0.774643
905.202	0.194231
908.577	1.21473
911.952	0.482693
915.327	1.29884
918.701	0.166527
922.076	0.620377
925.451	0.741316
928.826	1.34424
932.201	0.336493
935.575	1.00893
938.95	0.18837
942.325	0.034565
945.7	0.85264
949.075	0.616623
952.449	0.50753
955.824	0.131037
959.199	0.662264
962.574	0.164076
965.949	1.39741
969.324	1.43808
972.698	1.10162
976.073	1.30687
979.448	0.428394
982.823	0.930439
986.198	0.953686
989.572	0.744076
992.947	0.646027
996.322	1.38655
999.697	0.939373
1003.07	0.453411
1006.45	0.912731
1009.82	0.925144
1013.2	0.253132
1016.57	0.461195
1019.95	0.774059
1023.32	0.605478
1026.7	0.526379
1030.07	1.25862
1033.44	2.10286
1036.82	2.97008
1040.19	4.98603
1043.57	8.18437
1046.94	14.4247
1050.32	20.6304
1053.69	31.4722
1057.07	51.4088
1060.44	77.8604
1063.82	118.433
1067.19	212.54
1070.57	333.642
1073.94	426.709
1077.32	476.364
1080.69	540.6
1084.07	326.069
1087.44	104.809
1090.82	39.9302
1094.19	20.8426
1097.57	13.1657
1100.94	8.54902
1104.32	5.00186
1107.69	2.79338
1111.07	1.91299
1114.44	1.73201
1117.82	0.1227
1121.19	1.12464
1124.57	0.351357
1127.94	0.452438
1131.32	0.014294
1134.69	0.612438
1138.06	0.296711
1141.44	0.902256
1144.81	0.005482
1148.19	1.73885
1151.56	3.43889
1154.94	3.22097
1158.31	4.44879
1161.69	5.26507
1165.06	7.05448
1168.44	8.34705
1171.81	11.1695
1175.19	12.7654
1178.56	14.2319
1181.94	16.1872
1185.31	19.9328
1188.69	22.5514
1192.06	24.5097
1195.44	24.1112
1198.81	25.8571
1202.19	24.7637
1205.56	22.5228
1208.94	21.9223
1212.31	19.1669
1215.68	16.2805
1219.06	14.182
1222.43	9.79183
1225.81	5.43146
1229.18	1.62961
1232.56	0.879486
1235.93	0.965416
1239.31	0.681381
1242.68	1.12159
1246.06	0.19716
1249.43	1.22412
1252.81	1.10936
1256.18	0.545098
1259.56	0.740381
1262.93	0.938722
1266.31	0.752425
1269.68	1.1738
1273.06	0.179155
1276.43	0.794464
1279.81	0.252719
1283.18	0.752321
