Measurement: Raman, 514 nm, unoriented, Raman Data Processed
Mineral: Weloganite
Rruff sample: R050217
Ideal chemistry: Na_2_Sr_3_Zr(CO_3_)_6_3H_2_O
Locality: Francon Quarry, Montréal, Québec, Canada
Source: Marcus Origlieri
Description: Tan colored tapered hexagonal single crystals
Measured chemistry: Na_2.00_(Sr_2.93_Ca_0.07_)_Σ=3_(Zr_0.90_Hf_0.10_)_Σ=1_(CO_3_)_6_·3H_2_O
Raman shift (cm-1)	intensity
110.082	0
114.254	126.594
118.424	102.789
122.592	298.797
126.758	492.422
130.922	1102.57
135.083	1572.64
139.243	2656.42
143.401	3693.28
147.557	4862.65
151.711	5575
155.863	5130.62
160.013	3505.24
164.161	2097.87
168.308	1323.7
172.452	867.117
176.594	593.592
180.734	414.702
184.872	446.223
189.008	436.846
193.143	673.279
197.275	756.578
201.405	934.482
205.534	1062.09
209.66	1053.97
213.784	1329.09
217.907	1669.38
222.027	2124.68
226.146	2439.93
230.263	2377.05
234.377	2109.97
238.49	1859.62
242.601	1616.96
246.709	1131.9
250.816	745.387
254.921	696.177
259.024	709.212
263.125	673.554
267.224	524.937
271.321	663.097
275.416	834.927
279.51	881.646
283.601	747.902
287.69	667.244
291.778	429.783
295.863	170.464
299.947	206.545
304.029	459.598
308.108	799.058
312.186	852.826
316.262	998.605
320.336	1234.37
324.408	1225.21
328.478	1150.15
332.546	1200.64
336.612	1472.22
340.677	1921.25
344.739	2898.53
348.799	3873.35
352.858	4837.21
356.915	5186.66
360.969	4911.5
365.022	4427.05
369.073	3635.01
373.122	2731.17
377.169	1917
381.215	1248.68
385.258	798.069
389.299	503.669
393.339	346.196
397.376	280.202
401.412	105.689
405.446	79.983
409.478	49.529
413.508	114.44
417.536	163.259
421.562	126.785
425.586	62.036
429.609	90.698
433.629	9.047
437.648	27.841
441.665	54.546
445.68	14.255
449.693	5.202
453.704	126.016
457.713	38.135
461.721	124.252
465.726	96.291
469.73	40.8
473.731	131.859
477.731	105.644
481.729	114.997
485.725	216.651
489.72	210.034
493.712	128.777
497.703	221.663
501.691	251.223
505.678	273.482
509.663	291.16
513.646	284.082
517.627	334.627
521.607	336.741
525.584	264.606
529.56	368.208
533.534	262.555
537.506	317.108
541.476	321.965
545.444	448.562
549.41	341.582
553.375	401.755
557.337	456.682
561.298	327.314
565.257	322.135
569.214	402.575
573.17	227.035
577.123	281.344
581.075	315.311
585.024	104.854
588.972	247.189
592.918	189.108
596.863	266.754
600.805	211.069
604.746	175.539
608.685	120.241
612.621	62.368
616.557	74.426
620.49	221.713
624.421	166.231
628.351	146.422
632.279	209.335
636.205	207.91
640.129	355.96
644.051	96.636
647.972	245.397
651.89	183.352
655.807	250.588
659.722	392.882
663.636	318.263
667.547	522.736
671.457	500.998
675.365	914.902
679.271	1512.88
683.175	1270.17
687.077	822.29
690.978	648.747
694.877	578.425
698.774	547.343
702.669	374.455
706.562	471.72
710.454	442.107
714.344	278.355
718.232	383.719
722.118	868.189
726.002	1521.24
729.885	1655.76
733.766	1767.18
737.645	1640.29
741.522	1324.06
745.397	1701.07
749.271	2310.07
753.143	1707.8
757.013	1838.88
760.881	3488.4
764.748	2276.76
768.613	854.68
772.476	442.32
776.337	320.656
780.196	130.883
784.054	82.152
787.91	122.139
791.764	52.535
795.616	137.385
799.467	79.012
803.316	205.812
807.163	75.039
811.008	31.656
814.851	104.76
818.693	88.447
822.533	4.061
826.371	33.543
830.208	12.182
834.042	8.637
837.875	0.863
841.706	98.885
845.536	62.701
849.363	133.871
853.189	3.33
857.013	302.305
860.836	217.199
864.656	307.23
868.475	630.828
872.292	522.693
876.108	229.656
879.922	295.605
883.733	381.559
887.544	259.525
891.352	234.545
895.159	335.615
898.964	160.77
902.767	465.996
906.568	410.34
910.368	376.807
914.166	497.414
917.962	210.172
921.757	340.096
925.55	500.223
929.341	499.447
933.13	391.172
936.918	188.229
940.703	515.131
944.488	343.754
948.27	601.453
952.051	410.125
955.83	335.887
959.607	492.77
963.383	454.803
967.156	428.189
970.928	436.758
974.699	419.881
978.468	256.68
982.234	353.943
986	455.65
989.763	444.695
993.525	554.424
997.285	568.303
1001.04	847.02
1004.8	602.205
1008.55	566.051
1012.31	647.375
1016.06	551.164
1019.81	675.441
1023.56	589.336
1027.31	728.764
1031.05	973.666
1034.79	1057.06
1038.53	971.941
1042.27	1277.11
1046.01	1130.21
1049.75	1473.61
1053.48	1785.51
1057.22	2804.94
1060.95	3279.89
1064.68	4556.36
1068.4	6811.37
1072.13	10157.5
1075.86	14568
1079.58	24276.7
1083.3	20764.8
1087.02	10417.7
1090.74	5390.23
1094.45	3233.41
1098.17	2102.26
1101.88	1376.73
1105.59	978.021
1109.3	687.195
1113.01	465.082
1116.71	460.494
1120.42	644.783
1124.12	537.449
1127.82	238.645
1131.52	285.572
1135.22	235.625
1138.91	319.162
1142.61	309.371
1146.3	288.533
1149.99	403.035
1153.68	253.307
1157.37	122.988
1161.06	354.852
1164.74	280.234
1168.42	336.457
1172.1	267.98
1175.78	459.906
1179.46	478.336
1183.14	417.809
1186.81	406.48
1190.48	414.41
1194.15	367.84
1197.83	419.762
1201.49	236.188
1205.16	346.105
1208.82	472.805
1212.49	363.457
1216.15	334.895
1219.81	68.828
1223.46	166.219
1227.12	274.074
1230.78	386.387
1234.43	226.16
1238.08	365.379
1241.73	349.996
1245.38	248.949
1249.03	16.152
1252.67	455.629
1256.31	27.68
1259.95	374.066
1263.6	88.008
1267.23	304.18
1270.87	166.531
1274.51	125.965
1278.14	10.258
1281.77	34.809
1285.4	76.832
1289.03	57.758
1292.66	125.41
1296.28	41.617
1299.91	104.195
1303.53	33.172
1307.15	105.789
1310.77	264.707
1314.38	286.855
1318	169.516
1321.61	190.25
1325.23	12.367
1328.84	23.852
1332.45	559.742
1336.06	573.07
1339.66	812.816
1343.27	1158.03
1346.87	1707.79
1350.47	1664.66
1354.07	1663.77
1357.67	1759.59
1361.26	1656.55
1364.86	1729.49
1368.45	1794.91
1372.04	1828.68
1375.63	1662.98
1379.22	1488.72
1382.81	1164.73
1386.39	1356.75
1389.98	1129.16
1393.56	938.027
1397.14	955.902
1400.72	868.703
1404.3	975.785
1407.87	1080.92
1411.45	2014.46
1415.02	2729.22
1418.59	2610.59
1422.16	1978.48
1425.73	1149.43
1429.29	704.316
1432.86	259.992
1436.42	523.469
1439.98	200.793
1443.54	223.844
1447.1	332.191
1450.66	25.824
1454.21	161.957
1457.77	302.348
1461.32	300.852
1464.87	474.402
1468.42	100.238
1471.96	323.879
1475.51	261.094
1479.06	338.625
1482.6	7.359
1486.14	89.758
1489.68	13.113
1493.22	450.184
1496.75	279.363
1500.29	0.254
