Measurement: Raman, 532 nm, unoriented, Raman Data Processed
Mineral: Weloganite
Rruff sample: R050217
Ideal chemistry: Na_2_Sr_3_Zr(CO_3_)_6_3H_2_O
Locality: Francon Quarry, Montréal, Québec, Canada
Source: Marcus Origlieri
Description: Tan colored tapered hexagonal single crystals
Measured chemistry: Na_2.00_(Sr_2.93_Ca_0.07_)_Σ=3_(Zr_0.90_Hf_0.10_)_Σ=1_(CO_3_)_6_·3H_2_O
Raman shift (cm-1)	intensity
122.191	0
125.566	9.42365
128.941	49.1915
132.315	149.686
135.69	240.421
139.065	367.812
142.44	554.481
145.815	513.309
149.19	625.938
152.564	692.971
155.939	620.653
159.314	430.154
162.689	150.246
166.064	76.8617
169.438	58.2357
172.813	7.03171
176.188	0.494904
179.563	9.02509
182.938	11.9165
186.312	1.3465
189.687	21.5877
193.062	31.7492
196.437	26.8024
199.812	27.7951
203.187	38.1451
206.561	60.9443
209.936	94.5852
213.311	137.062
216.686	181.323
220.061	228.957
223.435	312.512
226.81	387.823
230.185	377.18
233.56	296.718
236.935	269.111
240.31	243.135
243.684	193.986
247.059	163.32
250.434	106.995
253.809	69.8753
257.184	67.4808
260.558	65.68
263.933	55.8542
267.308	52.9207
270.683	51.7932
274.058	65.9795
277.433	97.0547
280.807	103.903
284.182	72.4534
287.557	40.2821
290.932	12.7103
294.307	4.11381
297.681	10.6611
301.056	2.01639
304.431	8.71773
307.806	21.0933
311.181	33.0135
314.555	51.0169
317.93	64.4265
321.305	83.0342
324.68	93.5023
328.055	101.49
331.43	108.345
334.804	136.912
338.179	183.674
341.554	242.218
344.929	330.379
348.304	454.114
351.678	610.928
355.053	679.421
358.428	545.759
361.803	374.272
365.178	275.336
368.553	218.263
371.927	175.469
375.302	134.108
378.677	97.1173
382.052	65.0195
385.427	38.2505
388.801	24.8543
392.176	13.9178
395.551	9.76021
398.926	4.72127
402.301	1.52293
405.675	0.005493
409.05	0.648224
412.425	0.641174
415.8	0.062103
419.175	1.38617
422.55	1.10848
425.924	0.123978
429.299	0.597137
432.674	0.847366
436.049	1.01688
439.424	1.52913
442.798	1.46637
446.173	2.19611
449.548	2.86845
452.923	3.04865
456.298	4.0472
459.673	2.22424
463.047	3.78291
466.422	4.28882
469.797	3.95836
473.172	4.3331
476.547	4.31824
479.921	4.39142
483.296	4.68323
486.671	4.15999
490.046	3.46181
493.421	4.80014
496.796	5.802
500.17	5.36586
503.545	4.8669
506.92	5.65419
510.295	4.96847
513.67	4.9019
517.044	3.19351
520.419	2.86513
523.794	4.73404
527.169	4.67871
530.544	5.68695
533.918	5.30159
537.293	5.6416
540.668	7.19023
544.043	6.5096
547.418	6.88306
550.793	4.40382
554.167	6.84898
557.542	5.12369
560.917	5.36881
564.292	4.55933
567.667	3.73018
571.042	1.23666
574.416	0.617035
577.791	2.22983
581.166	1.81722
584.541	0.956299
587.915	0.16008
591.29	0.711609
594.665	0.315338
598.04	0.603226
601.415	1.8233
604.79	0.196411
608.164	0.000992
611.539	1.45863
614.914	0.934052
618.289	0.461761
621.664	1.57191
625.038	0.879364
628.413	2.06557
631.788	2.17282
635.163	3.67456
638.538	4.97319
641.913	6.27295
645.287	5.04146
648.662	5.53734
652.037	6.25505
655.412	5.3772
658.787	6.33913
662.162	9.38455
665.536	18.7477
668.911	27.1255
672.286	37.0821
675.661	79.8956
679.036	146.487
682.41	110.541
685.785	49.9785
689.16	29.8673
692.535	22.8499
695.91	22.8746
699.284	16.3527
702.659	7.82593
706.034	1.69923
709.409	0.93927
712.784	5.09857
716.159	16.001
719.533	27.1599
722.908	59.0616
726.283	113.393
729.658	149.248
733.033	127.829
736.408	160.797
739.782	116.59
743.157	116.656
746.532	191.933
749.907	239.113
753.282	140.855
756.656	119.204
760.031	196.299
763.406	228.55
766.781	67.7003
770.156	19.894
773.53	7.57388
776.905	3.54392
780.28	1.00058
783.655	1.14688
787.03	0.736359
790.404	0.636963
793.779	0.7332
797.154	1.73704
800.529	0.181564
803.904	0.17952
807.279	0.96463
810.653	0.728561
814.028	0.06926
817.403	1.43575
820.778	1.10818
824.153	1.46469
827.528	2.88821
830.902	4.03833
834.277	3.12007
837.652	2.34808
841.027	3.52072
844.402	3.03735
847.776	4.05633
851.151	4.11175
854.526	3.93247
857.901	5.10368
861.276	6.71777
864.65	11.8303
868.025	16.5051
871.4	22.4659
874.775	9.08302
878.15	5.12769
881.524	2.785
884.899	3.85692
888.274	4.96042
891.649	3.57249
895.024	3.57074
898.399	2.18636
901.773	1.27251
905.148	1.32721
908.523	2.9491
911.898	1.93878
915.273	1.81871
918.648	1.24132
922.022	0.99231
925.397	2.19392
928.772	1.99617
932.147	0.082275
935.522	0.725204
938.896	0.637039
942.271	0.064621
945.646	0.799942
949.021	1.06238
952.396	2.51906
955.77	0.963303
959.145	2.49124
962.52	2.70259
965.895	3.02792
969.27	0.945465
972.645	0.149445
976.019	0.812347
979.394	0.824982
982.769	0.946899
986.144	0.469727
989.519	0.517807
992.893	0.143143
996.268	0.430084
999.643	0.532761
1003.02	1.48164
1006.39	0.631516
1009.77	1.15009
1013.14	1.72141
1016.52	2.39041
1019.89	1.981
1023.27	3.17949
1026.64	2.60655
1030.02	4.85663
1033.39	7.04648
1036.77	7.73752
1040.14	11.9567
1043.52	15.2903
1046.89	23.9738
1050.27	36.8738
1053.64	54.5513
1057.02	96.59
1060.39	128.684
1063.77	168.564
1067.14	261.781
1070.51	462.099
1073.89	754.251
1077.26	992.658
1080.64	1607.11
1084.01	1430.17
1087.39	470.558
1090.76	161.006
1094.14	83.301
1097.51	50.1696
1100.89	32.8924
1104.26	23.86
1107.64	15.6817
1111.01	12.2213
1114.39	9.7989
1117.76	5.64922
1121.14	5.14969
1124.51	1.38448
1127.89	2.18558
1131.26	0.457275
1134.64	0.781937
1138.01	0.931427
1141.38	1.09319
1144.76	0.812195
1148.13	0.685883
1151.51	0.78273
1154.88	1.57164
1158.26	2.02013
1161.63	1.38567
1165.01	4.41817
1168.38	3.97951
1171.76	2.75078
1175.13	3.39964
1178.51	3.98155
1181.88	3.31239
1185.26	2.38635
1188.63	2.13875
1192.01	2.76189
1195.38	1.31238
1198.76	0.796432
1202.13	1.11034
1205.51	0.001892
1208.88	2.05269
1212.26	0.507767
1215.63	0.573151
1219.01	1.70268
1222.38	1.48348
1225.76	2.57986
1229.13	2.51135
1232.51	0.260208
1235.88	2.09097
1239.26	2.79095
1242.63	3.29642
1246.01	3.60893
1249.38	5.47888
1252.75	3.60785
1256.13	3.81103
1259.5	1.56722
1262.88	1.20195
1266.25	2.11659
1269.63	2.88249
1273	1.70895
1276.38	1.04297
1279.75	2.65147
1283.13	1.75565
1286.5	2.29256
1289.88	1.79393
1293.25	0.312744
1296.63	1.14915
