Measurement: Raman, 532 nm, unoriented, Raman Data Processed
Mineral: Wendwilsonite
Rruff sample: R100175
Ideal chemistry: Ca_2_Mg(As^5+^O_4_)_2_2H_2_O
Locality: Bou Azzer, Souss- Massa-Draa, Morocco
Source: University of Arizona Mineral Museum
Description: Dark pink, bladed crystals
Measured chemistry: Ca_2.017_(Mg_0.608_Co_0.266_Zn_0.069_Mn_0.005_)_Σ=0.995_(As_0.998_O_4_)_2_·2H_2_O
Raman shift (cm-1)	intensity
134.908	0
138.283	0.916321
141.657	2.48043
145.032	26.8505
148.407	49.286
151.782	104.251
155.157	184.216
158.532	280.72
161.906	375.956
165.281	423.675
168.656	449.487
172.031	501.088
175.406	564.697
178.78	632.453
182.155	705.247
185.53	762.343
188.905	746.768
192.28	674.679
195.655	473.344
199.029	347.639
202.404	307.584
205.779	298.823
209.154	289.3
212.529	220.975
215.904	166.672
219.278	137.824
222.653	123.752
226.028	127.291
229.403	128.977
232.778	131.41
236.152	144.404
239.527	140.637
242.902	123.446
246.277	100.88
249.652	43.7394
253.026	12.0092
256.401	7.0321
259.776	15.3804
263.151	11.683
266.526	7.14026
269.901	1.755
273.276	15.5174
276.65	34.384
280.025	65.5769
283.4	101.781
286.775	92.5381
290.15	40.4277
293.524	18.721
296.899	46.1373
300.274	84.4183
303.649	119.779
307.024	91.4236
310.399	56.562
313.773	49.8958
317.148	80.1774
320.523	140.672
323.898	243.325
327.273	370.634
330.647	540.21
334.022	769.541
337.397	1024.52
340.772	1027.16
344.147	752.432
347.522	562.913
350.896	516.673
354.271	541.533
357.646	539.153
361.021	469.088
364.396	338.632
367.77	226.544
371.145	166.824
374.52	151.516
377.895	131.534
381.27	76.3874
384.644	29.4962
388.019	0.4328
391.394	8.7951
394.769	9.73303
398.144	8.03876
401.519	8.38202
404.894	22.4356
408.268	22.9845
411.643	25.3609
415.018	35.441
418.393	60.7336
421.767	83.669
425.142	91.6521
428.517	109.287
431.892	134.24
435.267	200.17
438.642	295.098
442.017	415.047
445.391	580.585
448.766	792.281
452.141	886.763
455.516	668.292
458.891	373.392
462.265	218.121
465.64	159.862
469.015	140.206
472.39	136.792
475.765	128.92
479.139	105.989
482.514	86.6504
485.889	63.8185
489.264	39.0514
492.639	29.9777
496.014	19.9821
499.388	4.83649
502.763	1.41882
506.138	0.491943
509.513	1.52179
512.888	0.398865
516.263	1.86841
519.637	3.30469
523.012	1.1759
526.387	4.62164
529.762	0.955566
533.137	5.4469
536.511	4.41638
539.886	2.42523
543.261	7.1283
546.636	10.8183
550.011	8.17657
553.386	16.3383
556.76	12.7767
560.135	10.4669
563.51	8.95929
566.885	11.1143
570.26	8.57629
573.635	8.99737
577.009	4.95654
580.384	0.921997
583.759	0.570374
587.134	1.24847
590.509	0.185974
593.883	2.42481
597.258	1.11432
600.633	10.0321
604.008	1.01068
607.383	0.459412
610.758	1.14313
614.132	0.62854
617.507	0.000366
620.882	2.98676
624.257	3.1546
627.632	5.60992
631.006	5.75452
634.381	7.2478
637.756	14.0228
641.131	18.7089
644.506	31.3195
647.881	23.8494
651.255	30.2525
654.63	33.8204
658.005	40.2227
661.38	41.6718
664.755	37.9587
668.13	32.3141
671.504	33.6737
674.879	35.1485
678.254	34.3546
681.629	40.2371
685.004	53.0024
688.378	65.55
691.753	81.6257
695.128	103.088
698.503	131.045
701.878	163.427
705.253	184.138
708.627	192.144
712.002	187.164
715.377	155.536
718.752	127.508
722.127	97.5007
725.501	74.4881
728.876	54.0693
732.251	39.7625
735.626	28.9938
739.001	14.0973
742.375	1.81079
745.75	0.269104
749.125	9.14844
752.5	12.5399
755.875	13.8503
759.25	14.8629
762.625	3.48456
765.999	4.07886
769.374	12.3055
772.749	31.6622
776.124	53.6426
779.499	79.917
782.873	110.77
786.248	144.618
789.623	189.22
792.998	227.889
796.373	279.072
799.747	317.386
803.122	347.486
806.497	429.929
809.872	602.277
813.247	897.906
816.621	1329.75
819.996	1876.43
823.371	2479.02
826.746	2857.18
830.121	2767.39
833.496	2589.51
836.87	2527.39
840.245	2538.51
843.62	2373.43
846.995	1962.88
850.37	1559.46
853.745	1340.57
857.119	1294.91
860.494	1357.26
863.869	1444.38
867.244	1476.64
870.619	1325.01
873.994	1022.12
877.368	702.574
880.743	470.411
884.118	313.753
887.493	212.46
890.868	140.316
894.242	84.9979
897.617	47.4407
900.992	21.3531
904.367	10.1363
907.742	0.986938
911.116	7.8681
914.491	14.6316
917.866	5.64032
921.241	7.69537
924.616	7.05048
927.991	6.5553
931.365	0.03717
934.74	0.020569
938.115	6.04639
941.49	6.98773
944.865	11.9631
948.24	23.5038
951.614	27.3887
954.989	34.0114
958.364	41.4143
961.739	46.4149
965.114	57.2189
968.489	67.6376
971.863	65.2878
975.238	63.8698
978.613	59.5679
981.988	46.5902
985.362	39.564
988.737	26.9101
992.112	22.442
995.487	21.0107
998.862	15.6455
1002.24	11.0718
1005.61	7.69019
1008.99	11.2472
1012.36	10.9662
1015.74	6.49133
1019.11	1.18481
1022.49	3.23004
1025.86	7.99896
1029.23	9.70288
1032.61	8.62439
1035.98	7.54047
1039.36	8.48035
1042.73	8.18024
1046.11	8.10577
1049.48	13.7543
1052.86	5.61169
1056.23	11.5955
1059.61	12.4818
1062.98	17.6255
1066.36	19.8141
1069.73	25.7385
1073.11	23.9435
1076.48	17.5201
1079.86	8.8371
1083.23	3.15601
1086.61	2.75635
1089.98	9.87372
1093.36	0.669434
1096.73	2.4903
1100.11	0.319458
1103.48	2.45148
1106.86	4.37219
1110.23	2.95868
1113.61	0.054199
1116.98	0.967163
1120.36	4.27875
1123.73	4.02441
1127.11	6.63892
1130.48	10.533
1133.86	0.750977
1137.23	2.90344
1140.6	0.031128
1143.98	4.66638
1147.35	5.72638
1150.73	3.77045
1154.1	4.99341
1157.48	4.56195
1160.85	3.48657
1164.23	6.19812
1167.6	6.33643
1170.98	2.3081
1174.35	1.35754
1177.73	3.17908
1181.1	8.11279
1184.48	1.01709
1187.85	3.68652
1191.23	4.78095
1194.6	2.25482
1197.98	4.34827
1201.35	1.97436
1204.73	5.11121
1208.1	0.018188
1211.48	9.78882
1214.85	7.62628
1218.22	4.02808
1221.6	3.32416
1224.97	6.84503
1228.35	5.01813
1231.72	6.84448
1235.1	4.76935
1238.47	1.3241
1241.85	7.51062
1245.22	2.88269
1248.6	2.44476
1251.97	3.54694
1255.35	8.18384
1258.72	5.82306
1262.1	5.53485
1265.47	3.63934
1268.85	4.75128
1272.22	3.68646
1275.6	6.69482
1278.97	1.79303
1282.35	7.59973
1285.72	4.37964
1289.1	1.05298
1292.47	7.22601
1295.85	5.96173
1299.22	6.43243
1302.6	0
