Measurement: Raman, 532 nm, unoriented, Raman Data Processed
Mineral: Wendwilsonite
Rruff sample: R050398
Ideal chemistry: Ca_2_Mg(As^5+^O_4_)_2_2H_2_O
Locality: Bou Azzer, Morocco
Source: Marcus Origlieri
Description: Stout prismatic red crystals
Measured chemistry: Ca_2.00_(Mg_0.54_Co_0.31_Zn_0.15_)(As_1.00_O_4_)_2_Â·2H_2_O
Raman shift (cm-1)	intensity
132.497	0
135.872	6.47495
139.247	0.44273
142.622	12.2506
145.996	49.6964
149.371	79.5283
152.746	158.886
156.121	284.249
159.496	438.356
162.871	590.426
166.245	570.504
169.62	566.574
172.995	652.145
176.37	786.603
179.745	942.291
183.119	1115.11
186.494	1184.49
189.869	1099.62
193.244	824.374
196.619	459.471
199.994	313.445
203.369	301.184
206.743	330.997
210.118	299.648
213.493	179.438
216.868	109.237
220.243	79.7369
223.617	71.0979
226.992	79.7819
230.367	95.082
233.742	116.582
237.117	132.989
240.492	125.763
243.866	110.365
247.241	61.9913
250.616	7.26767
253.991	14.6613
257.366	19.0646
260.74	20.4562
264.115	8.19453
267.49	14.4428
270.865	41.8371
274.24	76.318
277.615	125.525
280.989	198.941
284.364	267.804
287.739	199.703
291.114	114.239
294.489	118.986
297.863	181.661
301.238	276.042
304.613	275.53
307.988	170.137
311.363	132.224
314.738	148.543
318.112	214.201
321.487	344.197
324.862	539.356
328.237	785.636
331.612	1119
334.986	1553.02
338.361	1882.34
341.736	1685.48
345.111	1284.43
348.486	1173.7
351.861	1280.1
355.235	1420.54
358.61	1386.35
361.985	1077.49
365.36	720.303
368.735	473.252
372.11	346.423
375.484	284.772
378.859	212.526
382.234	116.155
385.609	48.0206
388.984	13.3633
392.358	6.89803
395.733	15.0689
399.108	15.876
402.483	5.69765
405.858	11.2599
409.233	31.5909
412.607	59.9828
415.982	99.2663
419.357	134.094
422.732	136.694
426.107	117.572
429.481	117.431
432.856	149.603
436.231	245.166
439.606	384.212
442.981	560.647
446.356	807.542
449.73	1110.55
453.105	1145.55
456.48	722.328
459.855	359.933
463.23	198.948
466.604	134.946
469.979	110.791
473.354	100.023
476.729	82.9577
480.104	60.8987
483.479	44.0638
486.853	25.2411
490.228	10.9803
493.603	4.52351
496.978	2.31826
500.353	0.326927
503.728	2.04555
507.102	1.76584
510.477	0.543663
513.852	0.653069
517.227	1.24461
520.602	0.947762
523.976	3.69775
527.351	4.15907
530.726	5.29225
534.101	6.45759
537.476	11.2358
540.851	9.52828
544.225	13.0956
547.6	13.3123
550.975	15.1501
554.35	16.2201
557.725	14.2525
561.099	12.5707
564.474	9.74213
567.849	8.60433
571.224	5.34183
574.599	2.07235
577.973	2.9445
581.348	0.820786
584.723	0.034752
588.098	0.764351
591.473	0.965897
594.848	1.2584
598.222	2.9316
601.597	0.523834
604.972	1.30313
608.347	0.717148
611.722	3.88101
615.097	3.69759
618.471	6.79096
621.846	7.38396
625.221	11.7499
628.596	16.1015
631.971	17.9739
635.346	24.5995
638.72	33.2036
642.095	42.5966
645.47	51.704
648.845	59.4408
652.22	69.9698
655.594	79.6148
658.969	86.8663
662.344	93.1699
665.719	92.6877
669.094	94.6834
672.468	89.809
675.843	86.3926
679.218	85.8634
682.593	84.8772
685.968	93.8426
689.343	102.848
692.717	126.391
696.092	156.243
699.467	187.617
702.842	227.307
706.217	250.79
709.592	256.61
712.966	231.375
716.341	185.815
719.716	142.824
723.091	100.508
726.466	74.3526
729.841	51.954
733.215	38.5716
736.59	24.8773
739.965	13.0417
743.34	5.78973
746.715	0.012695
750.089	5.82449
753.464	8.68098
756.839	12.3411
760.214	10.9728
763.589	11.674
766.963	9.98544
770.338	2.05649
773.713	1.97562
777.088	22.5052
780.463	52.1631
783.838	92.2978
787.212	149.6
790.587	226.348
793.962	318.313
797.337	404.959
800.712	462.909
804.087	496.64
807.461	594.557
810.836	813.116
814.211	1202.22
817.586	1778.69
820.961	2551.57
824.335	3469.17
827.71	4094.14
831.085	3930.52
834.46	3497.89
837.835	3334.7
841.21	3281.23
844.584	2895.82
847.959	2276.31
851.334	1825.29
854.709	1628.03
858.084	1624.35
861.458	1749.08
864.833	1881.96
868.208	1852.65
871.583	1573.68
874.958	1143.75
878.333	761.984
881.707	494.73
885.082	318.484
888.457	207.954
891.832	134.233
895.207	81.5392
898.582	48.5188
901.956	23.2661
905.331	8.81432
908.706	0.402512
912.081	7.88783
915.456	10.0738
918.83	11.8915
922.205	10.0866
925.58	9.09099
928.955	4.55838
932.33	1.90637
935.705	2.54123
939.079	6.00119
942.454	9.71483
945.829	17.5365
949.204	22.3685
952.579	30.905
955.953	40.9607
959.328	50.073
962.703	60.2805
966.078	71.4764
969.453	81.0131
972.827	86.1653
976.202	82.7382
979.577	72.3122
982.952	56.9944
986.327	44.1911
989.702	28.1811
993.077	22.0276
996.451	16.6803
999.826	11.2343
1003.2	10.2095
1006.58	7.01225
1009.95	6.04657
1013.33	4.6731
1016.7	4.34737
1020.08	4.69791
1023.45	4.2354
1026.83	4.43724
1030.2	3.8853
1033.57	3.82621
1036.95	3.21334
1040.32	3.08447
1043.7	3.62317
1047.07	5.27134
1050.45	3.63936
1053.82	3.93798
1057.2	6.59651
1060.57	6.64116
1063.95	5.87319
1067.32	5.44421
1070.7	2.84252
1074.07	3.55525
1077.45	2.70303
1080.82	1.20361
1084.2	2.17846
1087.57	0.790154
1090.95	1.52955
1094.32	2.64343
1097.7	2.36326
1101.07	1.02009
1104.45	1.24358
1107.82	0.033287
1111.19	0.777145
1114.57	0.80323
1117.94	1.84158
1121.32	0.394165
1124.69	0.90937
1128.07	2.30663
1131.44	2.02094
1134.82	0.930779
1138.19	0.108826
1141.57	1.04596
1144.94	0.528702
1148.32	0.338844
1151.69	0.571953
1155.07	1.44214
1158.44	0.615852
1161.82	1.62225
1165.19	0.858521
1168.57	0.841103
1171.94	0.480423
1175.32	2.36646
1178.69	0.567017
1182.07	1.05946
1185.44	1.39391
1188.82	2.74345
1192.19	1.97784
1195.57	2.32588
1198.94	3.21708
1202.32	3.6482
1205.69	3.65645
1209.07	3.25134
1212.44	2.04934
1215.82	2.47109
1219.19	0.801331
1222.56	3.28314
1225.94	3.50532
1229.31	2.57674
1232.69	1.58456
1236.06	1.61039
1239.44	3.91555
1242.81	0.114182
1246.19	0.478798
1249.56	0.109367
1252.94	1.16985
1256.31	3.01185
1259.69	1.01608
1263.06	1.88959
1266.44	2.14095
1269.81	2.16211
1273.19	2.27107
1276.56	0.816658
1279.94	1.83805
1283.31	0.435699
1286.69	1.69867
1290.06	0.11203
1293.43	2.08096
1296.81	1.52222
1300.18	1.22279
