Measurement: Raman, 780 nm, unoriented, Raman Data Processed
Mineral: Wendwilsonite
Rruff sample: R100175
Ideal chemistry: Ca_2_Mg(As^5+^O_4_)_2_2H_2_O
Locality: Bou Azzer, Souss- Massa-Draa, Morocco
Source: University of Arizona Mineral Museum
Description: Dark pink, bladed crystals
Measured chemistry: Ca_2.017_(Mg_0.608_Co_0.266_Zn_0.069_Mn_0.005_)_Σ=0.995_(As_0.998_O_4_)_2_·2H_2_O
Raman shift (cm-1)	intensity
100.73	0
104.105	65.7947
107.48	27.6482
110.854	1.53052
114.229	18.1367
117.604	55.4137
120.979	88.7208
124.354	197.539
127.728	51.2495
131.103	9.31665
134.478	5.37561
137.853	17.4635
141.228	46.7483
144.602	55.2471
147.977	84.144
151.352	103.605
154.727	147.25
158.102	208.081
161.477	283.405
164.851	284.296
168.226	261.896
171.601	290.048
174.976	333.763
178.351	392.584
181.726	449.958
185.1	483.682
188.475	469.354
191.85	396.604
195.225	258.149
198.6	192.403
201.974	183.218
205.349	198.388
208.724	178.534
212.099	130.287
215.474	82.0176
218.848	64.0019
222.223	62.3729
225.598	60.2645
228.973	69.5067
232.348	68.4451
235.722	84.9412
239.097	89.0519
242.472	80.272
245.847	61.5841
249.222	26.8557
252.597	4.05908
255.971	9.12793
259.346	13.3141
262.721	3.29578
266.096	3.47583
269.471	17.3591
272.846	20.3749
276.22	41.3085
279.595	69.6115
282.97	102.642
286.345	94.1291
289.719	59.2305
293.094	40.7229
296.469	66.4966
299.844	100.683
303.219	135.642
306.594	115.354
309.968	99.0072
313.343	103.811
316.718	154.44
320.093	226.465
323.468	323.687
326.842	421.658
330.217	561.721
333.592	756.76
336.967	967.615
340.342	957.087
343.717	741.615
347.091	605.593
350.466	583.571
353.841	621.533
357.216	616.842
360.591	525.655
363.965	373.852
367.34	251.056
370.715	185.477
374.09	152.441
377.465	123.672
380.839	77.8337
384.214	27.2029
387.589	5.95227
390.964	6.6145
394.339	5.37988
397.714	6.35864
401.088	6.23606
404.463	8.39856
407.838	4.80127
411.213	15.3649
414.588	21.6467
417.962	36.2085
421.337	55.7139
424.712	72.1042
428.087	91.8816
431.462	136.607
434.837	200.075
438.211	281.261
441.586	369.877
444.961	504.998
448.336	685.84
451.711	768.733
455.085	559.894
458.46	311.009
461.835	188.701
465.21	141.561
468.585	119.714
471.959	115.099
475.334	112.353
478.709	87.918
482.084	79.7228
485.459	57.6482
488.834	39.6493
492.208	23.3608
495.583	16.2211
498.958	4.06384
502.333	1.40857
505.708	1.12683
509.082	4.01514
512.457	0.108276
515.832	6.38525
519.207	4.06848
522.582	4.81128
525.957	5.4463
529.331	8.76331
532.706	4.85644
536.081	5.7804
539.456	3.07581
542.831	3.71997
546.205	14.5758
549.58	7.49487
552.955	11.0673
556.33	14.9033
559.705	9.6029
563.08	11.8442
566.454	1.63867
569.829	9.75024
573.204	4.21045
576.579	11.5038
579.954	7.69409
583.328	2.43542
586.703	3.95606
590.078	0.772949
593.453	0.103882
596.828	8.19946
600.202	5.88733
603.577	1.50598
606.952	2.35242
610.327	11.1201
613.702	3.41333
617.077	7.20691
620.451	6.27686
623.826	12.2107
627.201	7.22717
630.576	13.4924
633.951	17.0856
637.325	14.4194
640.7	17.6439
644.075	17.6965
647.45	20.3861
650.825	23.9716
654.199	29.0518
657.574	30.4949
660.949	30.9612
664.324	30.4741
667.699	27.4681
671.073	34.6744
674.448	27.7122
677.823	33.5593
681.198	38.405
684.573	43.0511
687.948	54.415
691.322	66.2307
694.697	78.0779
698.072	94.9397
701.447	122.553
704.822	136.738
708.197	150.817
711.571	131.818
714.946	115.513
718.321	88.5126
721.696	65.5858
725.071	52.9879
728.445	41.7671
731.82	23.4741
735.195	12.2935
738.57	6.17908
741.945	5.64221
745.319	2.849
748.694	1.0835
752.069	7.1875
755.444	6.95435
758.819	10.2246
762.193	5.5896
765.568	3.30469
768.943	6.49793
772.318	2.69238
775.693	10.7771
779.068	23.446
782.442	37.8534
785.817	50.4926
789.192	68.4015
792.567	96.4847
795.942	121.446
799.317	153.15
802.691	191.184
806.066	274.445
809.441	399.016
812.816	591.48
816.191	852.777
819.565	1175.32
822.94	1547.86
826.315	1785.39
829.69	1759.01
833.065	1729.02
836.439	1776.29
839.814	1837.62
843.189	1744.63
846.564	1456.61
849.939	1184.82
853.313	1036.77
856.688	998.77
860.063	1037.81
863.438	1094.82
866.813	1088.48
870.188	971.853
873.562	746.72
876.937	512.431
880.312	351.711
883.687	246.577
887.062	171.712
890.437	110.757
893.811	77.5675
897.186	38.4473
900.561	20.2476
903.936	6.19043
907.311	4.18396
910.685	2.98083
914.06	0.899414
917.435	3.49463
920.81	6.21704
924.185	1.89526
927.559	3.51819
930.934	1.9635
934.309	4.82202
937.684	5.18176
941.059	9.15906
944.433	10.8236
947.808	16.6892
951.183	18.4406
954.558	26.557
957.933	30.6798
961.308	32.8964
964.682	34.6072
968.057	42.3058
971.432	44.8452
974.807	42.1512
978.182	39.8955
981.557	35.2904
984.931	28.3572
988.306	20.4031
991.681	14.44
995.056	13.9675
998.431	8.19794
1001.8	12.7462
1005.18	8.74915
1008.55	3.81964
1011.93	1.5885
1015.3	6.00531
1018.68	6.84528
1022.05	4.68506
1025.43	9.6745
1028.8	2.12921
1032.18	6.46069
1035.55	12.8909
1038.93	16.2922
1042.3	12.6276
1045.68	9.86902
1049.05	10.6934
1052.43	6.47858
1055.8	12.8527
1059.18	11.2024
1062.55	19.8978
1065.93	26.1953
1069.3	21.4311
1072.68	18.9114
1076.05	11.7287
1079.43	9.21851
1082.8	2.55969
1086.18	5.71845
1089.55	6.49902
1092.92	12.9634
1096.3	1.55823
1099.67	2.47076
1103.05	6.18762
1106.42	2.65527
1109.8	3.64929
1113.17	1.23376
1116.55	1.84534
1119.92	0.36438
1123.3	5.60449
1126.67	6.36658
1130.05	4.83917
1133.42	0.690186
1136.8	7.58722
1140.17	10.3193
1143.55	4.57227
1146.92	10.4078
1150.3	2.00617
1153.67	9.37311
1157.05	0.649231
1160.42	0.612305
1163.8	5.14532
1167.17	4.13629
1170.55	3.5885
1173.92	8.85419
1177.3	8.81165
1180.67	7.80859
1184.05	4.01453
1187.42	6.90955
1190.8	9.22339
1194.17	13.6061
1197.55	10.0732
1200.92	3.8706
1204.29	3.90979
1207.67	10.2756
1211.04	6.53583
1214.42	8.65643
1217.79	2.16626
1221.17	5.70898
1224.54	7.85632
1227.92	0.471558
1231.29	1.39874
1234.67	4.33185
1238.04	5.51349
1241.42	4.84833
1244.79	6.53314
1248.17	2.21283
1251.54	1.08618
1254.92	3.75732
1258.29	2.67474
1261.67	6.84125
1265.04	3.35083
1268.42	3.90454
1271.79	2.12891
1275.16	0.584656
1278.54	0.470825
1281.91	3.12183
