Measurement: Raman, 532 nm, unoriented, Raman Data Processed
Mineral: Wendwilsonite
Rruff sample: R100174
Ideal chemistry: Ca_2_Mg(As^5+^O_4_)_2_2H_2_O
Locality: Bou Azzer, Morocco
Source: University of Arizona Mineral Museum
Description: Druse of dark pink elongated pyramidal crystals
Measured chemistry: Ca_2.015_(Mg_0.519_Co_0.408_Zn_0.024_Mn_0.005_)_Σ=0.956_(As_0.999_O_4_)_2_·2H_2_O
Raman shift (cm-1)	intensity
145.032	0
148.407	0.321625
151.782	6.03733
155.157	23.972
158.532	46.7828
161.906	65.6787
165.281	71.1976
168.656	79.6691
172.031	90.6235
175.406	111.554
178.78	135.214
182.155	161.441
185.53	191.703
188.905	215.506
192.28	191.888
195.655	112.244
199.029	70.4096
202.404	54.5095
205.779	47.7145
209.154	35.9661
212.529	24.2047
215.904	14.2388
219.278	8.53413
222.653	7.83723
226.028	8.53323
229.403	6.15443
232.778	8.63841
236.152	10.5894
239.527	11.6147
242.902	10.0977
246.277	8.63518
249.652	2.71648
253.026	0.240128
256.401	0.416145
259.776	2.17183
263.151	2.11227
266.526	3.23191
269.901	0.023827
273.276	3.28752
276.65	6.69974
280.025	17.7559
283.4	26.3009
286.775	25.971
290.15	19.6347
293.524	22.5598
296.899	34.3133
300.274	54.7135
303.649	67.8769
307.024	47.1671
310.399	29.4251
313.773	20.7602
317.148	20.4236
320.523	29.1408
323.898	45.8069
327.273	68.2331
330.647	104.432
334.022	156.883
337.397	212.233
340.772	210.399
344.147	151.871
347.522	109.101
350.896	94.3442
354.271	89.9485
357.646	82.6386
361.021	66.2288
364.396	41.0544
367.77	24.0031
371.145	11.2279
374.52	3.32452
377.895	0.30719
381.27	2.12621
384.644	1.39901
388.019	1.39318
391.394	1.46495
394.769	5.43428
398.144	12.6976
401.519	26.5532
404.894	38.3644
408.268	42.7892
411.643	45.6772
415.018	57.4095
418.393	72.8431
421.767	78.4894
425.142	68.05
428.517	53.3156
431.892	36.3255
435.267	25.1994
438.642	20.2272
442.017	20.9224
445.391	23.4087
448.766	30.6594
452.141	35.4334
455.516	26.7536
458.891	18.1318
462.265	17.4089
465.64	21.9277
469.015	26.2479
472.39	28.7354
475.765	28.5671
479.139	22.0383
482.514	15.7429
485.889	10.0552
489.264	7.67601
492.639	4.85344
496.014	3.17455
499.388	0.812714
502.763	0.007172
506.138	0.598427
509.513	0.947716
512.888	1.13157
516.263	0.449364
519.637	0.220596
523.012	0.78688
526.387	0.544868
529.762	0.60051
533.137	1.58704
536.511	1.96733
539.886	0.198334
543.261	1.19564
546.636	0.79744
550.011	2.47476
553.386	3.28743
556.76	3.83022
560.135	3.56809
563.51	3.2185
566.885	2.40354
570.26	2.53539
573.635	1.20223
577.009	1.49128
580.384	1.04971
583.759	2.16375
587.134	1.05003
590.509	2.11577
593.883	1.37288
597.258	0.173233
600.633	1.18337
604.008	1.23277
607.383	0.019936
610.758	0.619553
614.132	1.00452
617.507	0.479027
620.882	0.32357
624.257	0.997902
627.632	1.58417
631.006	0.68869
634.381	1.27123
637.756	1.06752
641.131	2.25726
644.506	3.38217
647.881	3.54899
651.255	1.79349
654.63	2.47867
658.005	2.8025
661.38	4.76637
664.755	2.91742
668.13	3.76812
671.504	2.76869
674.879	1.77341
678.254	0.194862
681.629	2.30803
685.004	0.333626
688.378	2.90169
691.753	6.2877
695.128	7.66402
698.503	10.817
701.878	11.3557
705.253	13.8396
708.627	14.5763
712.002	13.7597
715.377	15.5225
718.752	14.413
722.127	12.0761
725.501	11.5687
728.876	9.39343
732.251	5.93415
735.626	2.1732
739.001	0.505493
742.375	2.30005
745.75	4.03862
749.125	4.24693
752.5	4.34886
755.875	1.5952
759.25	1.72621
762.625	8.46931
765.999	17.9129
769.374	31.5801
772.749	48.9081
776.124	70.6699
779.499	91.0346
782.873	116.4
786.248	144.955
789.623	180.453
792.998	221.133
796.373	252.63
799.747	259.865
803.122	246.383
806.497	263.214
809.872	329.626
813.247	455.916
816.621	636.405
819.996	866.378
823.371	1106.9
826.746	1223.86
830.121	1110.41
833.496	872.017
836.87	626.181
840.245	448.649
843.62	328.844
846.995	233.144
850.37	166.909
853.745	130.133
857.119	115.365
860.494	112.974
863.869	116.524
867.244	113.341
870.619	96.2983
873.994	69.0279
877.368	42.0809
880.743	25.9707
884.118	15.3843
887.493	10.1426
890.868	4.27837
894.242	1.73772
897.617	1.54019
900.992	3.24535
904.367	1.49847
907.742	2.66335
911.116	0.748505
914.491	1.52297
917.866	1.23807
921.241	0.139381
924.616	2.06699
927.991	3.76882
931.365	4.18446
934.74	4.32407
938.115	5.32024
941.49	7.47017
944.865	7.59873
948.24	7.26951
951.614	9.53844
954.989	8.19263
958.364	10.1948
961.739	9.95361
965.114	9.21392
968.489	9.02245
971.863	7.53239
975.238	8.22412
978.613	7.38293
981.988	5.76852
985.362	3.73592
988.737	4.38249
992.112	4.89198
995.487	3.97008
998.862	2.84535
1002.24	2.06953
1005.61	3.51073
1008.99	3.27852
1012.36	1.31634
1015.74	3.08436
1019.11	2.72704
1022.49	1.84534
1025.86	1.17864
1029.23	0.245766
1032.61	0.853424
1035.98	2.13953
1039.36	1.11127
1042.73	1.45473
1046.11	2.43205
1049.48	0.58757
1052.86	1.5694
1056.23	1.52002
1059.61	1.64796
1062.98	1.79425
1066.36	0.953735
1069.73	0.148193
1073.11	2.60995
1076.48	1.07724
1079.86	0.961533
1083.23	1.71794
1086.61	1.18192
1089.98	0.172165
1093.36	0.581406
1096.73	1.2777
1100.11	0.137131
1103.48	0.948425
1106.86	0.747482
1110.23	1.06889
1113.61	0.550537
1116.98	0.318344
1120.36	1.28459
1123.73	0.9366
1127.11	0.701462
1130.48	1.7951
1133.86	1.57812
1137.23	1.00598
1140.6	0.467056
1143.98	0.012695
1147.35	0.379623
1150.73	0.228394
1154.1	1.22868
1157.48	0.629471
1160.85	0.956894
1164.23	1.18073
1167.6	0.957672
1170.98	0.958633
1174.35	1.2046
1177.73	1.83192
1181.1	2.26546
1184.48	1.27437
1187.85	0.696426
1191.23	1.86055
1194.6	1.73422
1197.98	1.88048
1201.35	1.27789
1204.73	2.19093
1208.1	0.915024
1211.48	0.134506
1214.85	2.40598
1218.22	0.295731
1221.6	1.65617
1224.97	2.20216
1228.35	0.761993
1231.72	2.61733
1235.1	0.236374
1238.47	1.94029
1241.85	2.75206
1245.22	0.035461
1248.6	2.89233
1251.97	1.6725
1255.35	2.27766
1258.72	2.93782
1262.1	2.25641
1265.47	1.69958
1268.85	1.49966
1272.22	2.13917
1275.6	2.27571
1278.97	2.38495
1282.35	0.34024
1285.72	0.307449
1289.1	1.9799
1292.47	2.85561
1295.85	0.929352
1299.22	0.054184
1302.6	0
