Measurement: Raman, 780 nm, unoriented, Raman Data Processed
Mineral: Wendwilsonite
Rruff sample: R050398
Ideal chemistry: Ca_2_Mg(As^5+^O_4_)_2_2H_2_O
Locality: Bou Azzer, Morocco
Source: Marcus Origlieri
Description: Stout prismatic red crystals
Measured chemistry: Ca_2.00_(Mg_0.54_Co_0.31_Zn_0.15_)(As_1.00_O_4_)_2_Â·2H_2_O
Raman shift (cm-1)	intensity
90.6055	0
93.9803	42.2931
97.3551	5.73349
100.73	2.50479
104.105	7.42865
107.48	2.55042
110.854	6.56403
114.229	24.124
117.604	44.1749
120.979	135.189
124.354	447.158
127.728	55.6349
131.103	11.7584
134.478	3.91617
137.853	12.9339
141.228	41.2942
144.602	72.2366
147.977	116.652
151.352	187.767
154.727	315.425
158.102	560.266
161.477	946.908
164.851	886.815
168.226	655.995
171.601	697.417
174.976	884.584
178.351	1225.79
181.726	1719.6
185.1	2196
188.475	2506.82
191.85	2267.62
195.225	1256.32
198.6	654.953
201.974	441.763
205.349	411.518
208.724	387.817
212.099	245.743
215.474	138.373
218.848	85.3484
222.223	56.6518
225.598	45.4326
228.973	38.3905
232.348	40.919
235.722	53.8798
239.097	71.3677
242.472	89.1652
245.847	64.3326
249.222	16.8247
252.597	7.14593
255.971	16.046
259.346	16.4346
262.721	11.5128
266.096	0.885254
269.471	15.3927
272.846	40.7305
276.22	84.2732
279.595	187.478
282.97	336.981
286.345	313.442
289.719	184.451
293.094	187.506
296.469	331.715
299.844	652.782
303.219	805.876
306.594	502.175
309.968	295.439
313.343	213.564
316.718	187.482
320.093	202.668
323.468	258.2
326.842	368.922
330.217	584.814
333.592	968.229
336.967	1404.26
340.342	1363.44
343.717	1004.28
347.091	914.812
350.466	1088.82
353.841	1406.56
357.216	1555.6
360.591	1296.79
363.965	849.562
367.34	502.793
370.715	292.892
374.09	179.047
377.465	108.423
380.839	54.4925
384.214	13.8286
387.589	8.03567
390.964	16.8539
394.339	14.5058
397.714	0.96167
401.088	31.9873
404.463	70.2736
407.838	133.359
411.213	233.006
414.588	399.846
417.962	594.532
421.337	621.763
424.712	441.434
428.087	266.269
431.462	169.193
434.837	132.886
438.211	135.02
441.586	169.314
444.961	268.099
448.336	441.604
451.711	559.499
455.085	386.618
458.46	178.126
461.835	85.2765
465.21	51.1718
468.585	42.6693
471.959	48.4162
475.334	52.1814
478.709	47.8087
482.084	37.9993
485.459	23.3102
488.834	12.0893
492.208	6.39206
495.583	2.41582
498.958	1.67824
502.333	2.80464
505.708	2.82558
509.082	2.05177
512.457	0.4758
515.832	0.854919
519.207	1.49693
522.582	2.54147
525.957	6.3461
529.331	6.10974
532.706	6.88939
536.081	12.5692
539.456	11.0474
542.831	14.6423
546.205	15.6249
549.58	16.8033
552.955	17.4337
556.33	14.5942
559.705	16.6697
563.08	13.6872
566.454	10.6275
569.829	7.05818
573.204	3.98833
576.579	3.39386
579.954	0.661896
583.328	0.296814
586.703	4.00709
590.078	0.846268
593.453	1.03772
596.828	0.258377
600.202	3.2847
603.577	1.59994
606.952	2.1194
610.327	4.77837
613.702	4.3253
617.077	6.88704
620.451	10.3057
623.826	13.3559
627.201	17.8324
630.576	23.8152
633.951	31.1825
637.325	37.9342
640.7	45.8254
644.075	55.8724
647.45	65.8553
650.825	81.2231
654.199	90.1683
657.574	97.711
660.949	100.299
664.324	103.024
667.699	99.5893
671.073	95.3972
674.448	84.146
677.823	74.4242
681.198	68.9385
684.573	64.6768
687.948	62.541
691.322	66.8077
694.697	72.4794
698.072	82.0754
701.447	92.3469
704.822	98.6057
708.197	100.613
711.571	93.5279
714.946	76.5174
718.321	58.9254
721.696	43.1597
725.071	28.4906
728.445	19.2449
731.82	10.1925
735.195	2.70824
738.57	1.8121
741.945	7.47318
745.319	7.11569
748.694	11.0383
752.069	12.3797
755.444	9.64117
758.819	7.55789
762.193	0.143738
765.568	12.2973
768.943	26.2764
772.318	56.5616
775.693	97.0839
779.068	164.501
782.442	264.568
785.817	396.468
789.192	578.717
792.567	819.443
795.942	1069.62
799.317	1219.54
802.691	1269.51
806.066	1406.29
809.441	1762.97
812.816	2429.32
816.191	3457.84
819.565	4971.25
822.94	7202.11
826.315	8999.12
829.69	7822.5
833.065	5197.43
836.439	3426.23
839.814	2390.41
843.189	1706.48
846.564	1191.82
849.939	847.121
853.313	655.029
856.688	588.052
860.063	602.892
863.438	664.848
866.813	690.703
870.188	614.855
873.562	456.147
876.937	296.441
880.312	183.051
883.687	111.001
887.062	62.8725
890.437	31.8326
893.811	11.4432
897.186	2.02663
900.561	6.92447
903.936	8.92322
907.311	11.4308
910.685	11.6061
914.06	6.50432
917.435	4.10586
920.81	2.79964
924.185	1.64975
927.559	6.82571
930.934	7.74019
934.309	11.6502
937.684	17.3542
941.059	21.0615
944.433	23.7717
947.808	30.3614
951.183	34.9589
954.558	38.9162
957.933	43.6076
961.308	46.5794
964.682	48.9244
968.057	52.2109
971.432	53.6447
974.807	54.1159
978.182	48.7898
981.557	42.8777
984.931	33.7977
988.306	25.3957
991.681	23.0545
995.056	17.4959
998.431	15.2951
1001.8	14.4044
1005.18	10.8531
1008.55	8.27168
1011.93	7.9275
1015.3	7.71439
1018.68	6.89362
1022.05	4.62893
1025.43	6.4717
1028.8	3.27714
1032.18	2.27531
1035.55	4.27344
1038.93	3.56725
1042.3	4.15971
1045.68	3.26562
1049.05	3.22765
1052.43	3.78928
1055.8	2.69013
1059.18	1.95879
1062.55	4.19522
1065.93	4.58927
1069.3	2.463
1072.68	4.08824
1076.05	1.17078
1079.43	3.62711
1082.8	1.05993
1086.18	0.890999
1089.55	0.04393
1092.92	3.32927
1096.3	0.850533
1099.67	0.412865
1103.05	1.97557
1106.42	0.107391
1109.8	0.744614
1113.17	1.14271
1116.55	0.423386
1119.92	0.231239
1123.3	2.59328
1126.67	1.06102
1130.05	0.238533
1133.42	0.347214
1136.8	2.614
1140.17	2.39992
1143.55	0.490196
1146.92	1.53254
1150.3	1.76876
1153.67	2.69817
1157.05	0.603264
1160.42	0.305283
1163.8	0.989769
1167.17	1.63324
1170.55	4.05451
1173.92	3.00089
1177.3	2.58912
1180.67	3.02601
1184.05	1.0491
1187.42	2.94662
1190.8	4.00835
1194.17	4.26907
1197.55	2.81965
1200.92	2.76334
1204.29	1.96734
1207.67	2.81345
1211.04	3.97531
1214.42	3.43724
1217.79	0.954842
1221.17	3.85515
1224.54	4.2098
1227.92	0.419502
1231.29	1.72477
1234.67	2.28515
1238.04	1.62003
1241.42	2.15313
1244.79	2.90971
1248.17	2.05582
1251.54	2.29438
1254.92	1.51799
1258.29	1.48409
1261.67	4.25757
1265.04	0.1157
1268.42	1.68944
1271.79	1.43602
1275.16	2.55702
1278.54	0.726532
1281.91	1.6822
