Measurement: Raman, 780 nm, unoriented, Raman Data Processed
Mineral: Wendwilsonite
Rruff sample: R100174
Ideal chemistry: Ca_2_Mg(As^5+^O_4_)_2_2H_2_O
Locality: Bou Azzer, Morocco
Source: University of Arizona Mineral Museum
Description: Druse of dark pink elongated pyramidal crystals
Measured chemistry: Ca_2.015_(Mg_0.519_Co_0.408_Zn_0.024_Mn_0.005_)_Σ=0.956_(As_0.999_O_4_)_2_·2H_2_O
Raman shift (cm-1)	intensity
90.6055	0
93.9803	8.58099
97.3551	3.89764
100.73	14.5826
104.105	40.6011
107.48	11.3003
110.854	0.661758
114.229	2.63429
117.604	5.0118
120.979	12.6544
124.354	33.1899
127.728	2.56851
131.103	2.25859
134.478	0.093765
137.853	12.9453
141.228	26.4985
144.602	27.2636
147.977	36.6981
151.352	55.8747
154.727	79.7838
158.102	114.992
161.477	151.124
164.851	151.217
168.226	161.301
171.601	198.07
174.976	239.792
178.351	284.998
181.726	341.635
185.1	380.261
188.475	393.014
191.85	323.958
195.225	180.016
198.6	108.485
201.974	83.3816
205.349	75.685
208.724	60.326
212.099	39.8382
215.474	22.2993
218.848	13.5442
222.223	14.8088
225.598	16.0095
228.973	16.7328
232.348	21.0222
235.722	26.273
239.097	27.2909
242.472	25.8104
245.847	19.9793
249.222	6.87297
252.597	1.83018
255.971	4.33234
259.346	6.72353
262.721	3.61586
266.096	2.91653
269.471	7.30748
272.846	11.7355
276.22	20.0422
279.595	32.2004
282.97	51.5956
286.345	53.1038
289.719	45.9364
293.094	50.5324
296.469	72.5859
299.844	101.432
303.219	118.726
306.594	87.1682
309.968	56.4303
313.343	50.4305
316.718	62.6216
320.093	94.3962
323.468	135.492
326.842	179.977
330.217	236.545
333.592	313.155
336.967	383.479
340.342	357.248
343.717	254.283
347.091	198.939
350.466	187.013
353.841	191.407
357.216	184.082
360.591	142.204
363.965	91.3199
367.34	46.5452
370.715	21.0495
374.09	7.54895
377.465	0.041046
380.839	5.2979
384.214	4.23517
387.589	1.2512
390.964	8.52565
394.339	17.7652
397.714	33.9421
401.088	56.8419
404.463	81.743
407.838	89.0879
411.213	95.8979
414.588	118.393
417.962	139.852
421.337	142.481
424.712	119.075
428.087	86.7161
431.462	59.4932
434.837	44.9905
438.211	38.8495
441.586	39.0821
444.961	50.7152
448.336	67.233
451.711	72.7306
455.085	55.4239
458.46	37.8811
461.835	34.5978
465.21	34.7144
468.585	40.3478
471.959	43.9369
475.334	38.9095
478.709	29.3044
482.084	20.4871
485.459	12.5159
488.834	8.59611
492.208	4.61591
495.583	0.83049
498.958	1.0097
502.333	1.48346
505.708	1.01141
509.082	0.069885
512.457	0.435577
515.832	0.984146
519.207	1.07937
522.582	0.072136
525.957	2.08583
529.331	2.42297
532.706	3.18668
536.081	1.16762
539.456	4.38695
542.831	3.9263
546.205	2.57695
549.58	5.92116
552.955	6.11311
556.33	6.66542
559.705	6.83408
563.08	4.59961
566.454	2.68166
569.829	4.93391
573.204	4.43298
576.579	4.52684
579.954	2.6098
583.328	0.629021
586.703	1.07697
590.078	1.644
593.453	1.93696
596.828	1.68495
600.202	0.461174
603.577	0.379196
606.952	1.14394
610.327	0.013397
613.702	0.366066
617.077	0.333305
620.451	0.513206
623.826	2.64035
627.201	0.319984
630.576	3.34825
633.951	2.88367
637.325	4.01191
640.7	4.05391
644.075	7.08352
647.45	7.44154
650.825	8.67149
654.199	8.98979
657.574	10.0753
660.949	10.0772
664.324	9.10749
667.699	6.21966
671.073	5.50579
674.448	3.82184
677.823	1.48183
681.198	0.355461
684.573	1.76001
687.948	4.23991
691.322	7.53141
694.697	10.7361
698.072	13.5185
701.447	16.3725
704.822	16.9999
708.197	21.9881
711.571	23.5062
714.946	24.3967
718.321	22.6605
721.696	20.5952
725.071	17.4044
728.445	12.8389
731.82	6.26922
735.195	0.205566
738.57	2.34856
741.945	4.30932
745.319	5.21224
748.694	6.92548
752.069	3.00053
755.444	0.951065
758.819	9.01175
762.193	25.0354
765.568	43.3002
768.943	65.1596
772.318	96.3348
775.693	128.844
779.068	162.918
782.442	201.003
785.817	242.375
789.192	286.538
792.567	337.779
795.942	373.612
799.317	381.576
802.691	386.438
806.066	445.788
809.441	584.413
812.816	798.176
816.191	1044.51
819.565	1301.51
822.94	1536.69
826.315	1561.74
829.69	1318.22
833.065	986.539
836.439	679.019
839.814	467.922
843.189	325.465
846.564	229.775
849.939	164.14
853.313	131.942
856.688	120.088
860.063	118.72
863.438	121.712
866.813	117.795
870.188	100.447
873.562	70.1704
876.937	43.0241
880.312	25.8232
883.687	13.9423
887.062	8.32361
890.437	1.79763
893.811	0.298866
897.186	2.09796
900.561	5.44606
903.936	3.69219
907.311	4.00971
910.685	2.5713
914.06	1.12245
917.435	0.429855
920.81	3.12383
924.185	1.84995
927.559	5.31151
930.934	7.18444
934.309	9.37921
937.684	7.63002
941.059	11.8517
944.433	12.1492
947.808	13.1517
951.183	14.2053
954.558	13.6989
957.933	14.4339
961.308	13.5228
964.682	11.8229
968.057	12.4308
971.432	11.404
974.807	12.6016
978.182	8.72633
981.557	7.94934
984.931	4.79347
988.306	5.37915
991.681	5.25447
995.056	3.53352
998.431	3.6777
1001.8	2.51321
1005.18	5.23686
1008.55	3.24979
1011.93	2.84537
1015.3	2.99146
1018.68	0.982452
1022.05	1.36641
1025.43	1.95454
1028.8	2.25723
1032.18	2.76601
1035.55	0.860229
1038.93	1.12231
1042.3	1.9657
1045.68	1.3896
1049.05	2.64732
1052.43	1.67726
1055.8	0.361069
1059.18	0.504276
1062.55	1.95978
1065.93	2.62019
1069.3	2.44215
1072.68	1.18528
1076.05	1.59572
1079.43	1.75405
1082.8	1.11477
1086.18	1.44402
1089.55	0.07888
1092.92	1.13404
1096.3	0.563286
1099.67	0.983322
1103.05	0.35371
1106.42	1.29318
1109.8	0.249172
1113.17	0.405598
1116.55	0.332859
1119.92	0.439724
1123.3	1.12775
1126.67	0.314831
1130.05	2.26013
1133.42	0.963917
1136.8	0.705936
1140.17	0.520687
1143.55	1.65769
1146.92	2.12133
1150.3	1.35936
1153.67	1.91179
1157.05	0.174229
1160.42	1.82961
1163.8	1.95514
1167.17	2.26129
1170.55	1.74848
1173.92	2.56028
1177.3	1.25074
1180.67	2.18895
1184.05	1.63945
1187.42	0.943192
1190.8	1.90672
1194.17	2.14597
1197.55	1.71331
1200.92	1.72671
1204.29	1.56371
1207.67	2.14026
1211.04	1.44622
1214.42	1.50667
1217.79	1.51541
1221.17	1.80856
1224.54	0.888607
1227.92	0.53059
1231.29	1.73914
1234.67	2.05151
1238.04	2.5056
1241.42	1.18358
1244.79	1.52977
1248.17	2.0337
1251.54	2.4189
1254.92	0.843044
1258.29	1.05776
1261.67	1.61464
1265.04	0.34304
1268.42	2.72605
1271.79	1.27644
1275.16	2.19957
1278.54	0.295223
1281.91	2.2716
