Measurement: Raman, 532 nm, unoriented, Raman Data Processed
Mineral: Wermlandite
Rruff sample: R100052
Ideal chemistry: Mg_8_Al_2_(OH)_18_(SO_4_)_2_12H_2_O
Locality: Langban, Filipstad, Varmland, Sweden
Source: William W Pinch
Description: Pale greenish blue hexagonal plates
Raman shift (cm-1)	intensity
163.774	0
166.667	3.45914
169.559	12.5927
172.452	6.58063
175.345	7.745
178.237	4.6474
181.13	3.27872
184.023	5.52896
186.916	1.82916
189.808	4.30801
192.701	4.68243
195.594	2.06058
198.486	5.32211
201.379	3.97376
204.272	5.83478
207.164	4.68726
210.057	2.48032
212.95	4.34982
215.843	1.1423
218.735	1.12671
221.628	0.627563
224.521	0.745544
227.413	1.03827
230.306	1.76483
233.199	0.18573
236.091	0.557098
238.984	3.69455
241.877	3.0571
244.769	4.0816
247.662	3.35522
250.555	4.49829
253.448	5.76495
256.34	6.65134
259.233	10.5436
262.126	7.10068
265.018	10.6182
267.911	15.8068
270.804	16.3725
273.697	18.433
276.589	22.4587
279.482	26.7763
282.375	28.1663
285.267	31.5537
288.16	34.6007
291.053	31.541
293.945	30.5347
296.838	29.8442
299.731	30.4825
302.623	27.3029
305.516	26.3773
308.409	23.3919
311.302	22.5822
314.194	20.8091
317.087	19.0041
319.98	18.6017
322.872	14.9984
325.765	10.5602
328.658	7.02383
331.55	5.60297
334.443	4.35583
337.336	3.32391
340.229	3.14725
343.121	3.44531
346.014	2.25882
348.907	2.34778
351.799	2.31976
354.692	6.20441
357.585	4.81808
360.478	4.01038
363.37	5.93896
366.263	5.57776
369.156	6.01306
372.048	6.9631
374.941	4.68961
377.834	4.75513
380.726	5.70923
383.619	5.21591
386.512	3.80798
389.404	1.5799
392.297	1.11584
395.19	0.631134
398.083	4.01569
400.975	1.41342
403.868	1.70062
406.761	0.45993
409.653	1.2973
412.546	0.541046
415.439	2.43082
418.332	3.95258
421.224	7.65362
424.117	11.4052
427.01	16.7705
429.902	17.9066
432.795	24.6768
435.688	27.5316
438.58	29.9464
441.473	31.0811
444.366	35.6332
447.259	37.4943
450.151	40.9634
453.044	40.4592
455.937	45.8181
458.829	49.8244
461.722	48.708
464.615	47.4213
467.507	40.7429
470.4	27.4288
473.293	21.8938
476.185	10.9443
479.078	8.36304
481.971	6.45725
484.864	10.2866
487.756	10.6109
490.649	13.7742
493.542	16.5929
496.434	21.3429
499.327	32.3114
502.22	45.4108
505.113	59.5661
508.005	76.9564
510.898	102.332
513.791	129.621
516.683	168.745
519.576	210.386
522.469	254.152
525.361	297.243
528.254	314.468
531.147	308.16
534.04	271.309
536.932	230.677
539.825	191.675
542.718	160.401
545.61	120.82
548.503	84.1153
551.396	53.4699
554.288	36.2465
557.181	23.9265
560.074	17.2145
562.967	10.542
565.859	8.43912
568.752	5.53879
571.645	3.56644
574.537	0.42627
577.43	1.18491
580.323	2.60385
583.216	1.99002
586.108	0.49942
589.001	1.32822
591.894	0.683624
594.786	2.06302
597.679	2.05499
600.572	1.37729
603.464	0.640442
606.357	2.14123
609.25	1.26981
612.142	5.32687
615.035	2.81576
617.928	1.36301
620.821	2.2432
623.713	5.41092
626.606	5.40103
629.499	3.20801
632.391	5.46481
635.284	6.43951
638.177	5.2901
641.069	6.21222
643.962	1.61127
646.855	4.32657
649.747	6.18857
652.64	5.38599
655.533	7.92401
658.426	3.68655
661.318	6.88632
664.211	4.74106
667.104	5.06833
669.996	4.68729
672.889	3.58365
675.782	4.2941
678.674	6.78516
681.567	3.60971
684.46	6.46478
687.353	6.16724
690.245	5.39395
693.138	4.52988
696.031	5.48822
698.923	6.57461
701.816	6.89706
704.709	4.21841
707.601	0.917816
710.494	4.89154
713.387	6.85339
716.28	4.40976
719.172	3.69989
722.065	0.784821
724.958	3.09228
727.85	0.857147
730.743	3.091
733.636	3.67004
736.529	3.26312
739.421	0.979797
742.314	0.929626
745.207	0.003387
748.099	2.55582
750.992	2.40927
753.885	3.19321
756.777	1.13562
759.67	3.36795
762.563	2.75629
765.456	2.7793
768.348	1.49493
771.241	1.00485
774.134	0.628723
777.026	0.364319
779.919	1.24512
782.812	1.29684
785.704	2.43799
788.597	1.7168
791.49	2.54324
794.383	4.54074
797.275	2.50757
800.168	1.54935
803.061	0.511353
805.953	2.24612
808.846	0.635315
811.739	0.218719
814.631	1.66617
817.524	1.37756
820.417	0.153442
823.309	1.8587
826.202	1.23041
829.095	2.00076
831.988	2.1947
834.88	3.57397
837.773	1.09354
840.666	0.043701
843.558	0.929352
846.451	2.73776
849.344	2.79437
852.236	1.63834
855.129	3.19089
858.022	2.34119
860.915	2.94678
863.807	0.897156
866.7	2.59872
869.593	2.31451
872.485	2.18887
875.378	3.57819
878.271	1.69293
881.163	4.71759
884.056	3.21704
886.949	2.52716
889.842	2.26111
892.734	1.19699
895.627	1.45371
898.52	3.28925
901.412	2.19659
904.305	5.0983
907.198	1.18561
910.091	5.47647
912.983	3.02106
915.876	2.99683
918.769	0.652008
921.661	0.939697
924.554	3.22195
927.447	2.15784
930.339	1.76321
933.232	1.94989
936.125	0.57016
939.018	1.2298
941.91	0.259857
944.803	0.653625
947.696	2.4939
950.588	4.33093
953.481	2.51331
956.374	0.305359
959.266	5.58234
962.159	2.14358
965.052	0.707733
967.944	1.26282
970.837	0.234009
973.73	3.52094
976.623	1.10544
979.515	0.595734
982.408	3.48438
985.301	3.61511
988.193	4.04596
991.086	4.03153
993.979	0.110779
996.871	0.018158
999.764	1.43393
1002.66	2.26224
1005.55	5.41159
1008.44	6.53091
1011.34	6.98105
1014.23	12.4523
1017.12	6.45343
1020.01	5.56192
1022.91	5.82632
1025.8	5.56046
1028.69	7.72833
1031.58	4.88382
1034.48	6.58905
1037.37	10.3727
1040.26	8.67645
1043.15	18.7399
1046.05	19.579
1048.94	31.7554
1051.83	42.8184
1054.73	56.001
1057.62	68.9937
1060.51	65.5359
1063.4	42.1369
1066.3	22.1302
1069.19	10.1987
1072.08	5.05637
1074.97	4.15414
1077.87	6.3291
1080.76	4.21658
1083.65	5.2204
1086.55	5.1409
1089.44	2.55579
1092.33	0.301727
1095.22	2.03174
1098.12	2.0968
1101.01	0.327301
1103.9	0.70694
1106.79	1.4054
1109.69	1.41788
1112.58	1.82492
1115.47	0.960968
1118.37	7.70648
1121.26	0.569214
1124.15	0.884583
1127.04	0.903137
1129.94	1.03571
1132.83	2.38684
1135.72	2.13815
1138.61	2.80887
1141.51	3.45129
1144.4	1.79596
1147.29	0.722046
1150.18	2.65607
1153.08	2.77756
1155.97	4.28043
1158.86	4.60233
1161.76	0.066742
1164.65	1.86307
1167.54	0.130707
1170.43	1.3476
1173.33	1.87622
1176.22	2.76407
1179.11	2.44833
1182	0.125488
1184.9	0.72757
1187.79	3.36093
1190.68	0.105347
1193.58	1.44849
1196.47	1.03137
1199.36	3.92227
1202.25	3.78284
1205.15	4.18091
1208.04	4.54465
1210.93	3.49558
1213.82	0.650879
1216.72	3.298
1219.61	2.92682
1222.5	3.30118
1225.39	0.546234
1228.29	3.00061
1231.18	4.00052
1234.07	3.39331
1236.97	1.10452
1239.86	0.681549
1242.75	1.54828
1245.64	2.37314
1248.54	0.338776
1251.43	3.89999
1254.32	6.32068
1257.21	3.50546
1260.11	4.74158
1263	4.24942
1265.89	2.81561
1268.79	4.1669
1271.68	5.91544
1274.57	4.50403
1277.46	2.18338
1280.36	1.99435
1283.25	2.13977
1286.14	2.40234
1289.03	0.404694
1291.93	3.69208
1294.82	1.44559
1297.71	2.38001
1300.61	3.60953
