Measurement: Raman, 780 nm, unoriented, Raman Data Processed
Mineral: Wermlandite
Rruff sample: R100052
Ideal chemistry: Mg_8_Al_2_(OH)_18_(SO_4_)_2_12H_2_O
Locality: Langban, Filipstad, Varmland, Sweden
Source: William W Pinch
Description: Pale greenish blue hexagonal plates
Raman shift (cm-1)	intensity
181.207	0
184.1	1.94851
186.992	0.17746
189.885	3.64276
192.778	3.46898
195.67	2.6505
198.563	3.57587
201.456	4.31466
204.349	3.67678
207.241	3.73845
210.134	6.13246
213.027	6.00895
215.919	4.88139
218.812	2.67948
221.705	3.44539
224.597	1.31526
227.49	0.852386
230.383	0.083839
233.275	2.02844
236.168	1.08511
239.061	0.044498
241.954	1.92414
244.846	2.20224
247.739	2.69715
250.632	3.93719
253.524	5.61433
256.417	7.66488
259.31	8.45482
262.202	11.0312
265.095	12.6884
267.988	16.4989
270.881	16.197
273.773	19.8643
276.666	21.9766
279.559	23.8712
282.451	25.4586
285.344	26.501
288.237	26.7726
291.13	26.2947
294.022	23.7538
296.915	22.3407
299.808	20.9847
302.7	20.2046
305.593	19.2633
308.486	18.0262
311.378	15.943
314.271	15.1945
317.164	12.575
320.057	11.168
322.949	9.2791
325.842	8.94769
328.735	6.35067
331.627	5.98674
334.52	5.85036
337.413	5.67445
340.305	5.64615
343.198	5.91254
346.091	5.32172
348.984	5.25718
351.876	4.57196
354.769	4.59628
357.662	4.38888
360.554	4.01649
363.447	3.13369
366.34	3.86708
369.233	4.25834
372.125	3.72265
375.018	2.00526
377.911	1.78011
380.803	0.329025
383.696	1.90275
386.589	0.454456
389.481	0.654667
392.374	0.7453
395.267	2.03081
398.159	1.53952
401.052	1.24349
403.945	1.02772
406.838	1.31947
409.73	3.88409
412.623	6.32183
415.516	8.79369
418.408	11.4246
421.301	13.6305
424.194	17.7456
427.087	22.2867
429.979	25.074
432.872	27.8919
435.765	29.5774
438.657	32.1373
441.55	33.6898
444.443	34.1361
447.335	35.1799
450.228	37.108
453.121	36.4019
456.014	37.5095
458.906	37.2172
461.799	33.536
464.692	28.2753
467.584	20.9918
470.477	14.2474
473.37	8.92942
476.262	5.47279
479.155	2.61279
482.048	4.42332
484.94	3.51588
487.833	5.36565
490.726	6.99699
493.619	10.6618
496.511	14.6169
499.404	19.259
502.297	27.317
505.189	36.1757
508.082	47.1971
510.975	61.0697
513.867	73.2218
516.76	91.2699
519.653	106.587
522.545	119.109
525.438	124.88
528.331	121.328
531.224	110.945
534.116	94.8228
537.009	78.3167
539.902	65.2695
542.794	48.9537
545.687	35.4746
548.58	23.9221
551.472	15.4865
554.365	9.91637
557.258	5.96895
560.151	3.87688
563.043	3.98711
565.936	1.18512
568.829	1.41047
571.721	0.308514
574.614	0.139061
577.507	0.029205
580.399	1.10346
583.292	0.558525
586.185	0.97961
589.078	0.78273
591.97	0.547318
594.863	1.05919
597.756	0.340229
600.649	0.338524
603.541	0.474976
606.434	0.105686
609.327	0.029633
612.219	0.140934
615.112	0.589886
618.005	1.57022
620.897	2.43504
623.79	1.49121
626.683	2.02925
629.576	1.76533
632.468	2.80252
635.361	2.22587
638.254	2.84654
641.146	3.74853
644.039	3.86124
646.932	3.44051
649.824	2.82648
652.717	3.18101
655.61	3.41208
658.503	3.33039
661.395	3.78052
664.288	4.91697
667.181	4.06935
670.073	3.69181
672.966	1.89998
675.859	3.00878
678.751	3.2559
681.644	2.65402
684.537	3.18474
687.429	2.7016
690.322	2.6659
693.215	2.89833
696.108	2.33907
699	1.48483
701.893	3.15917
704.786	2.01397
707.678	2.09184
710.571	1.84067
713.464	1.54041
716.356	1.31256
719.249	1.95687
722.142	2.16002
725.035	0.161083
727.927	0.60257
730.82	1.12853
733.713	0.703411
736.605	0.596531
739.498	0.415218
742.391	0.8465
745.284	0.473701
748.176	1.62485
751.069	1.46698
753.962	0.753731
756.854	0.246178
759.747	0.333881
762.64	0.207577
765.532	0.723373
768.425	0.341709
771.318	1.35012
774.211	0.868736
777.103	0.425018
779.996	0.471951
782.889	0.232349
785.781	0.699116
788.674	1.43428
791.567	1.07055
794.459	0.396004
797.352	0.619953
800.245	0.489761
803.138	0.991013
806.03	2.04812
808.923	1.38456
811.816	1.11834
814.708	1.28355
817.601	0.477375
820.494	1.64024
823.386	1.36889
826.279	1.29347
829.172	1.78986
832.064	1.92136
834.957	1.88683
837.85	1.85562
840.743	0.357246
843.635	1.27016
846.528	1.56665
849.421	0.215315
852.313	1.6656
855.206	1.53086
858.099	1.15579
860.991	0.852726
863.884	1.46878
866.777	2.08252
869.67	2.36598
872.562	1.16074
875.455	2.04493
878.348	1.65853
881.24	1.62904
884.133	1.26992
887.026	0.733238
889.918	1.54529
892.811	0.42654
895.704	0.381058
898.597	0.354576
901.489	0.821907
904.382	0.942867
907.275	0.438942
910.167	0.233971
913.06	1.21375
915.953	0.769976
918.846	0.851311
921.738	0.121531
924.631	0.56982
927.524	0.606905
930.416	0.374722
933.309	0.014759
936.202	0.661251
939.094	0.716976
941.987	0.174776
944.88	0.576796
947.773	0.32184
950.665	0.351162
953.558	0.906591
956.451	1.69697
959.343	1.62006
962.236	1.46352
965.129	1.50182
968.021	0.627396
970.914	0.1145
973.807	0.14514
976.699	0.264139
979.592	0.406
982.485	1.01554
985.378	0.054802
988.27	0.165211
991.163	1.10959
994.056	0.859554
996.948	0.404949
999.841	1.29278
1002.73	0.770542
1005.63	1.46643
1008.52	1.55989
1011.41	2.4528
1014.3	1.8685
1017.2	1.25558
1020.09	1.85851
1022.98	2.08843
1025.88	3.62412
1028.77	3.30672
1031.66	3.41455
1034.55	4.01715
1037.45	6.83324
1040.34	7.02703
1043.23	10.1203
1046.12	13.2392
1049.02	16.1333
1051.91	18.6934
1054.8	22.0029
1057.69	19.5749
1060.59	13.7515
1063.48	8.74458
1066.37	7.04078
1069.27	5.25581
1072.16	3.4419
1075.05	3.5121
1077.94	2.43361
1080.84	1.53265
1083.73	2.0103
1086.62	1.55941
1089.52	0.231337
1092.41	0.528141
1095.3	0.113169
1098.19	0.390266
1101.09	1.72066
1103.98	0.537992
1106.87	1.04735
1109.76	0.920841
1112.66	0.916191
1115.55	0.393494
1118.44	1.18783
1121.34	1.59621
1124.23	0.781288
1127.12	0.14839
1130.01	0.834356
1132.9	0.517483
1135.8	0.98617
1138.69	0.871861
1141.58	1.41594
1144.48	0.44976
1147.37	1.48264
1150.26	0.668278
1153.15	0.778187
1156.05	1.5222
1158.94	1.30234
1161.83	1.35325
1164.72	0.730261
1167.62	1.55457
1170.51	0.995342
1173.4	1.14373
1176.3	0.940344
1179.19	1.29333
1182.08	1.20522
1184.97	1.31635
1187.87	0.604055
1190.76	1.06612
1193.65	1.38369
1196.55	1.21753
1199.44	0.164104
1202.33	1.4262
1205.22	0.219196
1208.12	1.65756
1211.01	0.212212
1213.9	0.961998
1216.79	0.166101
1219.69	0.065859
1222.58	0.052267
1225.47	0.052979
1228.37	0.56349
1231.26	1.12812
1234.15	1.05168
1237.04	1.31768
1239.93	1.02057
1242.83	0.372952
1245.72	0.00238
1248.61	0.630119
1251.51	0.503433
1254.4	0.225203
1257.29	0.848091
1260.18	1.18893
1263.08	0.515842
1265.97	1.00279
1268.86	0.752464
1271.76	0.565765
1274.65	0.210159
1277.54	0.708822
1280.43	0.680622
1283.33	0.913801
