Measurement: Raman, 780 nm, unoriented, Raman Data Processed
Mineral: Wermlandite
Rruff sample: R100051
Ideal chemistry: Mg_8_Al_2_(OH)_18_(SO_4_)_2_12H_2_O
Locality: Langban, Filipstad, Varmland, Sweden
Source: James Shigley
Description: Pale bluish-green massive associated with calcite and magnetite. Can't verify it, so we made it non-public.
Raman shift (cm-1)	intensity
182.171	0
185.064	3.65025
187.957	0.006027
190.849	5.11287
193.742	3.70073
196.635	5.31183
199.527	6.71057
202.42	3.66215
205.313	4.69911
208.205	6.52341
211.098	8.27307
213.991	9.84441
216.884	4.7054
219.776	5.17902
222.669	2.43682
225.562	2.66001
228.454	2.1233
231.347	2.81072
234.24	0.195923
237.132	0.4282
240.025	0.733391
242.918	0.824417
245.811	3.44089
248.703	3.51577
251.596	5.63819
254.489	4.3968
257.381	6.59138
260.274	7.74351
263.167	8.04892
266.059	8.76186
268.952	10.9636
271.845	11.5894
274.738	15.7858
277.63	18.6207
280.523	19.0761
283.416	20.1945
286.308	21.3533
289.201	22.1355
292.094	20.2684
294.986	19.2332
297.879	18.5832
300.772	18.1318
303.665	15.6315
306.557	15.4781
309.45	14.8071
312.343	14.5972
315.235	13.8428
318.128	12.8087
321.021	14.9611
323.913	12.7651
326.806	11.0185
329.699	10.9353
332.592	7.84527
335.484	7.60646
338.377	3.63186
341.27	3.70498
344.162	5.20381
347.055	3.15777
349.948	4.35136
352.841	4.03003
355.733	6.02138
358.626	5.28297
361.519	6.77709
364.411	8.90743
367.304	7.83572
370.197	9.22823
373.089	8.58453
375.982	8.9168
378.875	5.60155
381.767	7.06762
384.66	3.85133
387.553	3.58692
390.446	2.38532
393.338	2.1455
396.231	1.25654
399.124	1.83939
402.016	1.74991
404.909	0.637268
407.802	0.195061
410.695	0.708038
413.587	0.670769
416.48	2.03874
419.373	3.35873
422.265	7.06191
425.158	10.6007
428.051	13.2432
430.943	13.7001
433.836	16.2122
436.729	19.8756
439.622	21.0672
442.514	19.6233
445.407	22.1918
448.3	22.3011
451.192	21.7742
454.085	21.6488
456.978	26.1787
459.87	25.3198
462.763	22.0464
465.656	21
468.548	20.857
471.441	15.6012
474.334	12.3698
477.227	5.40252
480.119	4.79769
483.012	2.80301
485.905	1.84954
488.797	3.65828
491.69	4.27428
494.583	6.43027
497.476	9.34568
500.368	14.3687
503.261	20.8876
506.154	29.0232
509.046	40.4286
511.939	49.2967
514.832	62.9942
517.724	77.5171
520.617	94.3858
523.51	106.89
526.403	117.443
529.295	133.941
532.188	137.857
535.081	143.25
537.973	143.28
540.866	145.421
543.759	136.962
546.651	113.546
549.544	83.5905
552.437	56.0762
555.33	36.773
558.222	24.4215
561.115	17.4463
564.008	13.7765
566.9	6.76567
569.793	6.57487
572.686	2.47957
575.578	2.40916
578.471	1.23894
581.364	0.815514
584.256	0.581375
587.149	2.30913
590.042	0.512596
592.935	0.789196
595.827	0.067947
598.72	1.14006
601.613	0.306644
604.505	1.28441
607.398	0.186226
610.291	0.137695
613.183	0.585419
616.076	0.283962
618.969	1.42495
621.862	3.41856
624.754	1.89897
627.647	1.91522
630.54	4.43458
633.432	2.45447
636.325	4.49987
639.218	4.00416
642.111	4.6608
645.003	3.57983
647.896	3.44009
650.789	3.90224
653.681	3.17155
656.574	3.39228
659.467	3.48672
662.359	4.17745
665.252	3.76639
668.145	3.09908
671.038	1.88449
673.93	2.92525
676.823	3.16666
679.716	4.96636
682.608	6.22494
685.501	3.39448
688.394	2.61723
691.286	4.04044
694.179	6.80807
697.072	4.42799
699.965	3.67147
702.857	2.94447
705.75	2.34456
708.643	1.7108
711.535	3.27115
714.428	3.04296
717.321	0.709606
720.213	0.355965
723.106	0.85696
725.999	1.83197
728.891	0.950294
731.784	0.839394
734.677	2.74379
737.57	2.01246
740.462	1.97731
743.355	2.86781
746.248	3.76011
749.14	5.56164
752.033	3.15998
754.926	4.04777
757.818	5.58936
760.711	2.69266
763.604	3.55275
766.497	1.90353
769.389	0.239708
772.282	1.85781
775.175	0.72036
778.067	0.966743
780.96	1.04984
783.853	1.4878
786.745	0.11145
789.638	1.33168
792.531	0.486492
795.424	2.57262
798.316	0.500702
801.209	1.74921
804.102	0.579704
806.994	4.21297
809.887	3.40373
812.78	2.54726
815.673	1.65257
818.565	2.05078
821.458	1.74614
824.351	2.20048
827.243	1.60395
830.136	2.30286
833.029	3.20827
835.921	5.28231
838.814	4.71418
841.707	4.12632
844.6	3.2932
847.492	2.10142
850.385	2.79711
853.278	2.59913
856.17	2.35104
859.063	2.93756
861.956	2.97611
864.848	2.658
867.741	3.80795
870.634	4.06754
873.527	3.5047
876.419	3.54266
879.312	3.68686
882.205	3.20737
885.097	3.55112
887.99	1.89275
890.883	1.97531
893.775	2.62148
896.668	0.952381
899.561	2.03373
902.454	2.92427
905.346	1.07142
908.239	2.38444
911.132	1.66402
914.024	0.547871
916.917	1.68498
919.81	0.07766
922.702	0.888912
925.595	0.136333
928.488	2.61716
931.381	1.0109
934.273	0.478294
937.166	1.29448
940.059	1.93768
942.951	1.95676
945.844	0.569195
948.737	0.266354
951.63	1.3732
954.522	0.188057
957.415	2.24858
960.308	0.725208
963.2	3.19694
966.093	2.46506
968.986	1.95135
971.878	0.375484
974.771	2.10607
977.664	0.231495
980.557	1.91006
983.449	3.38559
986.342	1.1954
989.235	2.60771
992.127	0.544106
995.02	4.06862
997.913	2.02554
1000.8	1.94607
1003.7	2.09734
1006.59	2.04424
1009.48	2.72488
1012.38	2.56647
1015.27	3.32041
1018.16	4.0876
1021.05	5.18046
1023.95	4.30596
1026.84	3.82805
1029.73	5.28117
1032.62	4.25944
1035.52	6.52006
1038.41	10.4048
1041.3	12.7865
1044.2	22.2579
1047.09	28.1193
1049.98	39.5613
1052.87	49.8157
1055.77	55.2476
1058.66	53.9819
1061.55	42.1299
1064.44	23.8973
1067.34	12.4412
1070.23	6.80432
1073.12	4.32134
1076.02	5.66771
1078.91	3.51089
1081.8	2.77711
1084.69	5.73523
1087.59	1.24512
1090.48	1.27536
1093.37	0.62468
1096.27	1.17254
1099.16	1.13098
1102.05	2.37432
1104.94	2.17181
1107.84	1.87435
1110.73	1.1656
1113.62	0.234608
1116.51	2.55522
1119.41	2.23828
1122.3	2.63319
1125.19	0.912693
1128.08	0.053417
1130.98	1.0311
1133.87	0.786419
1136.76	1.99083
1139.65	1.76682
1142.55	3.21472
1145.44	0.011936
1148.33	1.91177
1151.23	2.87786
1154.12	0.401058
1157.01	1.36218
1159.9	2.18525
1162.8	1.97999
1165.69	1.09405
1168.58	3.35873
1171.47	1.18723
1174.37	1.7304
1177.26	2.71281
1180.15	1.75028
1183.05	1.97972
1185.94	1.26165
1188.83	3.7449
1191.72	1.6964
1194.62	2.44078
1197.51	2.03767
1200.4	0.708984
1203.29	2.79135
1206.19	0.808994
1209.08	2.25904
1211.97	3.61693
1214.87	3.48458
1217.76	2.35255
1220.65	0.480766
1223.54	1.65979
1226.44	0.999741
1229.33	1.53764
1232.22	0.861397
1235.11	1.86572
1238.01	2.96666
1240.9	2.76466
1243.79	1.52648
1246.68	2.46698
1249.58	0.518047
1252.47	2.21603
1255.36	0.304466
1258.26	2.36578
1261.15	2.57514
1264.04	0.546947
1266.93	1.02194
1269.83	2.57257
1272.72	1.96223
1275.61	1.86521
1278.51	2.15543
1281.4	1.27219
1284.29	1.17416
