Measurement: Raman, 514 nm, unoriented, Raman Data Processed
Mineral: Whelanite
Rruff sample: R050323
Ideal chemistry: Cu_2_Ca_6_[Si_6_O_17_(OH)](CO_3_)(OH)_3_2H_2_O
Locality: Christmas mine, Christmas, Gila County, Arizona, USA
Source: Marcus Origlieri
Description: Light-blue thin, flat bladed fibers associated with colorless hydroxyapophyllite, blue kinoite, and light yellow andradite.
Raman shift (cm-1)	intensity
128.146	0
132.309	98.88
136.47	595.359
140.63	903.481
144.787	1795.7
148.942	1864.24
153.096	1653.24
157.247	1282.75
161.396	1228.22
165.544	910.757
169.689	890.783
173.833	1120.73
177.974	1905.64
182.114	2350.49
186.251	2492.27
190.387	2281.6
194.52	2162.94
198.652	1757.13
202.782	1466.25
206.909	1384.43
211.035	315.715
215.159	61.242
219.281	202.215
223.4	82.54
227.518	127.616
231.634	10.783
235.748	224.614
239.86	293.107
243.97	745.627
248.079	434.193
252.185	966.814
256.289	1093.26
260.391	966.291
264.492	955.109
268.59	1116.06
272.687	1369.66
276.781	1906.18
280.874	2086.68
284.964	1991.07
289.053	2028.94
293.14	1770.46
297.225	1856.04
301.308	2415.37
305.389	1972.59
309.468	2414.11
313.545	2039.75
317.62	2321.21
321.693	2358.05
325.765	1894.61
329.834	1778.23
333.902	1648.1
337.967	1482.28
342.031	1338.39
346.093	1245.96
350.153	1665.34
354.21	2083.84
358.267	2477.46
362.321	3189.19
366.373	3659.02
370.423	3440.92
374.471	3124.54
378.518	3046.91
382.563	2486.48
386.605	2693.4
390.646	2638.12
394.685	2632.41
398.722	2616.35
402.757	2802.32
406.79	2598.45
410.821	2332.76
414.851	1964.26
418.878	1534.56
422.904	1284.95
426.927	2005.64
430.949	2694.52
434.969	4313.33
438.987	6307.16
443.003	6718.76
447.018	7334.67
451.03	7322.81
455.041	8057.56
459.049	8341.25
463.056	7405.27
467.061	5788.66
471.064	4502.53
475.065	3651.29
479.064	3871.67
483.062	4124.59
487.057	3448.06
491.051	2905.51
495.043	2670.93
499.032	2835.35
503.02	2757.39
507.007	2148.29
510.991	1572.42
514.973	1185.4
518.954	895.02
522.933	709.258
526.91	728.111
530.885	894.57
534.858	767.016
538.829	583.502
542.799	520.512
546.766	140.68
550.732	55.578
554.696	159.926
558.658	135.65
562.618	108.486
566.576	113.225
570.533	24.826
574.488	128.449
578.44	267.215
582.391	122.625
586.341	112.396
590.288	185.738
594.233	159.973
598.177	31.252
602.119	103.121
606.059	163.773
609.997	76.887
613.933	259.988
617.868	358.498
621.801	234.354
625.731	774.1
629.66	725.875
633.588	1128.58
637.513	1462.39
641.437	1490.98
645.358	1468.37
649.278	1765.44
653.196	3126.98
657.113	4186.52
661.027	8379.62
664.94	15642.3
668.851	18119.4
672.76	11307.2
676.667	6085.53
680.572	3468.49
684.476	2531.04
688.378	1941.19
692.278	1744.94
696.176	1861.3
700.072	2065.52
703.967	1529.49
707.86	1374.8
711.751	771.85
715.64	833.229
719.527	800.535
723.413	485.984
727.297	521.766
731.179	228.285
735.059	325.797
738.937	205.914
742.814	209.191
746.689	75.666
750.562	9.381
754.433	159.912
758.303	351.301
762.17	121.113
766.036	124.141
769.901	302.238
773.763	362.795
777.624	65.871
781.482	94.861
785.339	208.633
789.195	110.9
793.048	153.986
796.9	6.021
800.75	99.963
804.598	265.758
808.445	121.314
812.289	163.781
816.132	211.264
819.973	216.775
823.813	104.783
827.65	284.963
831.486	235.086
835.32	254.691
839.152	277.758
842.983	231.932
846.812	108.242
850.639	472.689
854.464	331.281
858.288	508.033
862.11	324.172
865.93	370.631
869.748	528.719
873.564	362.871
877.379	372.76
881.192	457.242
885.004	273.994
888.813	678.266
892.621	435.645
896.427	440.891
900.232	438.742
904.034	694.646
907.835	905.148
911.634	605.285
915.432	796.342
919.227	756.266
923.021	625.877
926.813	562.418
930.604	783.945
934.393	557.48
938.18	949.344
941.965	868.17
945.749	624.816
949.53	678.572
953.311	802.525
957.089	751.707
960.866	1179.38
964.641	1292.01
968.414	2287.08
972.185	1770.59
975.955	1251.68
979.723	1150.14
983.49	1353.27
987.254	1746.46
991.017	2390.19
994.779	3485.32
998.538	3380.54
1002.3	4375.56
1006.05	9489.03
1009.81	10407
1013.56	5276.4
1017.31	2776.3
1021.06	1672.81
1024.81	1363.53
1028.55	845.701
1032.3	698.324
1036.04	879.295
1039.78	915.686
1043.52	1092.49
1047.26	932.568
1050.99	861.219
1054.73	814.932
1058.46	906.818
1062.19	1060.81
1065.92	1273.42
1069.65	1172.5
1073.37	1327.06
1077.1	1176.96
1080.82	1030.31
1084.54	875.029
1088.26	766.219
1091.97	891.902
1095.69	871.033
1099.4	936.477
1103.12	649.156
1106.83	286.293
1110.54	432.961
1114.24	315.887
1117.95	111.125
1121.65	65.738
1125.35	111.414
1129.06	23.266
1132.75	44.398
1136.45	286.43
1140.15	534.094
1143.84	98.25
1147.53	135.012
1151.22	189.449
1154.91	231.984
1158.6	160.914
1162.28	103.305
1165.97	381.918
1169.65	138.523
1173.33	0.348
1177.01	255.184
1180.69	80.324
1184.36	480.047
1188.04	237.246
1191.71	240.984
1195.38	990.305
1199.05	119.203
1202.71	557.66
1206.38	373.68
1210.04	414.266
1213.71	137.414
1217.37	110
1221.03	121.227
1224.68	283.117
1228.34	492.965
1231.99	513.359
1235.65	406.992
1239.3	169.609
1242.95	218.375
1246.59	360.328
1250.24	428.27
1253.88	353.484
1257.53	48.66
1261.17	60.102
1264.81	118.332
1268.45	110.168
1272.08	197.344
1275.72	192.746
1279.35	459.176
1282.98	348.09
1286.61	304.82
1290.24	75.473
1293.87	141.359
1297.49	79.215
1301.11	335.238
1304.73	397.027
1308.36	428.867
