Measurement: Raman, 532 nm, unoriented, Raman Data Processed
Mineral: Whelanite
Rruff sample: R050323
Ideal chemistry: Cu_2_Ca_6_[Si_6_O_17_(OH)](CO_3_)(OH)_3_2H_2_O
Locality: Christmas mine, Christmas, Gila County, Arizona, USA
Source: Marcus Origlieri
Description: Light-blue thin, flat bladed fibers associated with colorless hydroxyapophyllite, blue kinoite, and light yellow andradite.
Raman shift (cm-1)	intensity
95.0865	0.53727
98.4613	0.901329
101.836	8.00536
105.211	19.169
108.586	28.9397
111.961	8.70637
115.335	6.60574
118.71	9.2448
122.085	13.4513
125.46	24.3697
128.835	25.0725
132.209	36.6498
135.584	48.1315
138.959	64.2578
142.334	80.884
145.709	91.3912
149.084	102.159
152.458	93.3733
155.833	77.0026
159.208	65.2456
162.583	57.0534
165.958	48.9416
169.333	42.4285
172.707	39.5805
176.082	37.1469
179.457	37.911
182.832	39.694
186.207	42.7128
189.581	41.6638
192.956	39.072
196.331	40.9164
199.706	42.5928
203.081	36.6601
206.455	24.9864
209.83	15.5296
213.205	6.66583
216.58	1.45933
219.955	1.52056
223.329	1.78989
226.704	1.58845
230.079	0.428314
233.454	0.904961
236.829	2.40736
240.204	4.91281
243.578	6.98212
246.953	8.35995
250.328	11.271
253.703	15.8047
257.078	17.5047
260.452	17.4174
263.827	16.5687
267.202	15.9585
270.577	16.8076
273.952	20.9395
277.327	24.9184
280.701	29.0384
284.076	31.6293
287.451	31.494
290.826	28.8517
294.201	23.1441
297.575	20.0671
300.95	18.6589
304.325	15.4503
307.7	13.6156
311.075	11.0839
314.45	9.38702
317.824	9.17589
321.199	7.61964
324.574	6.83108
327.949	5.48714
331.324	2.47339
334.699	1.58559
338.073	0.535629
341.448	2.32014
344.823	1.64536
348.198	0.741837
351.573	6.60848
354.947	14.3211
358.322	19.6953
361.697	24.4638
365.072	31.5897
368.447	35.337
371.822	34.4873
375.196	31.6851
378.571	28.1673
381.946	27.1667
385.321	27.6194
388.696	28.2289
392.07	29.7529
395.445	30.9643
398.82	33.1997
402.195	35.8003
405.57	34.7356
408.945	27.3268
412.319	14.2645
415.694	2.94994
419.069	1.69019
422.444	1.94603
425.818	1.89758
429.193	11.9159
432.568	27.0794
435.943	46.3175
439.318	69.5895
442.693	84.3198
446.067	86.3989
449.442	80.6073
452.817	76.359
456.192	73.4082
459.567	72.7091
462.942	63.6041
466.316	49.818
469.691	39.1232
473.066	33.9453
476.441	32.3599
479.816	34.1674
483.19	36.0983
486.565	36.2159
489.94	34.3448
493.315	30.067
496.69	29.7974
500.065	31.5049
503.439	31.9838
506.814	27.1462
510.189	19.209
513.564	11.7243
516.939	6.17734
520.313	3.72308
523.688	2.06422
527.063	2.56376
530.438	2.61938
533.813	2.75614
537.188	3.12114
540.562	1.4249
543.937	0.088982
547.312	0.702847
550.687	0.972462
554.062	1.23095
557.436	1.26743
560.811	0.417915
564.186	0.110535
567.561	0.021317
570.936	0.165596
574.311	0.84359
577.685	1.08685
581.06	1.39912
584.435	1.7817
587.81	2.51847
591.185	2.49079
594.559	3.83963
597.934	3.47099
601.309	3.00046
604.684	1.82397
608.059	1.52151
611.433	1.22144
614.808	1.41452
618.183	1.36956
621.558	1.2469
624.933	2.58458
628.308	3.28536
631.682	4.89327
635.057	7.89333
638.432	9.70608
641.807	13.5029
645.182	19.3105
648.557	29.5532
651.931	46.1295
655.306	77.4897
658.681	125.246
662.056	192.054
665.431	272.768
668.805	329.782
672.18	276.618
675.555	164.276
678.93	92.5027
682.305	59.2501
685.679	43.9635
689.054	38.2073
692.429	37.7818
695.804	39.5458
699.179	41.2827
702.553	38.6741
705.928	33.0405
709.303	24.7128
712.678	16.403
716.053	11.5162
719.428	6.87181
722.802	3.9842
726.177	2.83532
729.552	1.88222
732.927	0.009853
736.302	0.155125
739.677	0.313015
743.051	0.760212
746.426	0.497181
749.801	0.723595
753.176	0.051781
756.551	0.4566
759.925	0.362049
763.3	0.313461
766.675	0.534801
770.05	0.22821
773.425	1.24903
776.799	1.21856
780.174	2.51238
783.549	1.83187
786.924	1.36143
790.299	1.803
793.674	1.66863
797.048	1.89296
800.423	2.15634
803.798	2.1533
807.173	2.91936
810.548	2.96869
813.923	2.68201
817.297	3.1562
820.672	4.1778
824.047	5.06749
827.422	5.39985
830.797	5.24722
834.171	6.22736
837.546	6.41124
840.921	7.42254
844.296	7.65049
847.671	7.33647
851.045	6.81013
854.42	7.54096
857.795	7.0079
861.17	7.03609
864.545	7.01352
867.92	5.92552
871.294	5.62729
874.669	4.53181
878.044	3.33348
881.419	3.17979
884.794	2.18819
888.168	1.42531
891.543	1.68969
894.918	1.1866
898.293	1.27798
901.668	1.61011
905.043	0.85429
908.417	0.418018
911.792	0.885883
915.167	0.201702
918.542	0.121136
921.917	0.061344
925.291	0.380589
928.666	0.668407
932.041	0.737457
935.416	0.372261
938.791	0.179653
942.165	0.179234
945.54	0.349388
948.915	0.160236
952.29	1.13913
955.665	1.78378
959.04	3.80243
962.414	5.1962
965.789	5.70214
969.164	4.63318
972.539	4.10443
975.914	3.56105
979.288	3.63665
982.663	4.64308
986.038	8.17611
989.413	12.1657
992.788	20.4123
996.163	27.2115
999.537	37.0667
1002.91	54.972
1006.29	86.8481
1009.66	107.821
1013.04	69.5082
1016.41	30.1678
1019.79	13.8056
1023.16	5.97527
1026.54	3.03044
1029.91	1.03276
1033.29	0.271347
1036.66	0.655483
1040.04	0.280582
1043.41	1.43969
1046.79	1.18671
1050.16	1.767
1053.53	2.9454
1056.91	5.50849
1060.28	8.34651
1063.66	13.4441
1067.03	18.3233
1070.41	23.3726
1073.78	23.8771
1077.16	20.8681
1080.53	16.1308
1083.91	12.6668
1087.28	12.3377
1090.66	13.4689
1094.03	15.6322
1097.41	15.4271
1100.78	13.9004
1104.16	9.4205
1107.53	6.56514
1110.91	3.75275
1114.28	1.97724
1117.66	0.323391
1121.03	0.141273
1124.41	0.060635
1127.78	0.201916
1131.15	0.029049
1134.53	0.115723
1137.9	0.077812
1141.28	0.596596
1144.65	0.462936
1148.03	0.115414
1151.4	1.05089
1154.78	0.969074
1158.15	1.18401
1161.53	1.18622
1164.9	1.0017
1168.28	1.48074
1171.65	0.695087
1175.03	1.43674
1178.4	0.839323
1181.78	0.737967
1185.15	1.23429
1188.53	0.78673
1191.9	0.260908
1195.28	0.418499
1198.65	0.490788
1202.03	0.501036
1205.4	0.109041
1208.78	0.29241
1212.15	0.342592
1215.53	0.542213
1218.9	0.530172
1222.28	0.354544
1225.65	0.527494
1229.03	0.30826
1232.4	0.00947
1235.78	0.09387
1239.15	0.304127
1242.52	0.605034
1245.9	0.585859
1249.27	0.448755
1252.65	1.15257
1256.02	0.99696
1259.4	0.748888
1262.77	0.796455
1266.15	0.458069
1269.52	0.566978
1272.9	0.405199
1276.27	0.533628
1279.65	0.923548
1283.02	0.469593
1286.4	0.684772
1289.77	0.589523
1293.15	0.862749
1296.52	1.03117
1299.9	0.836842
