Measurement: Raman, 532 nm, unoriented, Raman Data Processed
Mineral: Wherryite
Rruff sample: R110089
Ideal chemistry: Pb_7_Cu^2+^_2_(SO_4_)_4_(SiO_4_)_2_(OH)_2_
Locality: Mammoth-St Anthony mine, Tiger, Pinal County, Arizona, USA
Source: Brent Thorne and Joe Ruiz
Description: Pale green granular, associated with blue diaboleite
Raman shift (cm-1)	intensity
181.612	0
184.505	4.88477
187.398	32.938
190.29	80.9368
193.183	141.877
196.076	210.194
198.968	234.141
201.861	179.854
204.754	110.267
207.647	69.8842
210.539	64.7128
213.432	81.0895
216.325	99.3511
219.217	107.881
222.11	117.636
225.003	137.804
227.895	178.228
230.788	230.697
233.681	290.326
236.573	323.858
239.466	326.397
242.359	307.458
245.252	283.144
248.144	264.074
251.037	256.113
253.93	236.278
256.822	190.487
259.715	138.066
262.608	95.795
265.5	68.9249
268.393	47.5539
271.286	25.4428
274.179	7.54599
277.071	5.23843
279.964	9.32407
282.857	10.254
285.75	6.80792
288.642	1.17371
291.535	10.8023
294.428	24.5742
297.32	38.8576
300.213	53.2187
303.106	73.8553
305.998	94.7122
308.891	111.684
311.784	123.889
314.676	131.475
317.569	145.3
320.462	155.587
323.355	160.349
326.247	135.244
329.14	99.96
332.033	72.0472
334.925	55.2724
337.818	46.984
340.711	38.212
343.603	35.0555
346.496	33.0025
349.389	41.449
352.281	56.282
355.174	70.059
358.067	81.2626
360.96	83.0713
363.852	82.2365
366.745	72.7271
369.638	64.7203
372.53	55.7815
375.423	45.046
378.316	36.3901
381.209	23.1338
384.101	16.5493
386.994	9.06873
389.887	3.63043
392.779	0.015106
395.672	1.84232
398.565	3.05817
401.457	2.25943
404.35	1.62503
407.243	0.043671
410.135	4.20648
413.028	7.97656
415.921	9.77408
418.814	12.8902
421.706	17.4251
424.599	23.2658
427.492	28.4378
430.384	32.6014
433.277	37.0818
436.17	41.71
439.062	43.6591
441.955	45.5107
444.848	44.5316
447.741	44.3952
450.633	43.3283
453.526	43.0563
456.419	44.6274
459.311	45.0551
462.204	41.3359
465.097	37.9524
467.99	33.2186
470.882	32.1996
473.775	31.9266
476.668	34.8085
479.56	35.5701
482.453	38.499
485.346	36.9187
488.238	33.7739
491.131	33.5714
494.024	30.6453
496.916	31.0574
499.809	36.9378
502.702	41.5016
505.595	52.8329
508.487	62.7792
511.38	72.3218
514.273	67.3081
517.165	50.0509
520.058	30.7422
522.951	17.138
525.844	9.82533
528.736	6.29828
531.629	8.35817
534.522	1.65651
537.414	0.483917
540.307	0.109955
543.2	1.65785
546.092	1.29153
548.985	1.4499
551.878	0.897705
554.771	3.32367
557.663	5.2325
560.556	7.01549
563.449	10.6684
566.341	12.5761
569.234	17.2157
572.127	18.9517
575.019	21.4577
577.912	20.9112
580.805	20.6026
583.697	19.5242
586.59	16.8337
589.483	15.3791
592.376	18.1069
595.268	17.8945
598.161	16.3385
601.054	13.0385
603.946	11.7912
606.839	7.62805
609.732	7.03339
612.625	4.90045
615.517	3.29773
618.41	1.46187
621.303	3.48196
624.195	0.199982
627.088	1.55811
629.981	0.73027
632.873	0.737076
635.766	1.7394
638.659	4.32994
641.552	5.95265
644.444	8.03244
647.337	8.92548
650.23	7.74307
653.122	6.73186
656.015	3.95914
658.908	1.94731
661.8	0.48645
664.693	0.637421
667.586	0.288177
670.479	0.501282
673.371	0.702927
676.264	3.07823
679.157	4.59276
682.049	3.42947
684.942	5.28291
687.835	6.47221
690.727	6.15018
693.62	10.0818
696.513	11.1196
699.405	16.4118
702.298	23.0714
705.191	25.5703
708.084	35.8077
710.976	39.4899
713.869	43.4322
716.762	48.7436
719.654	45.587
722.547	43.4585
725.44	39.2971
728.332	31.7754
731.225	21.519
734.118	15.5409
737.011	10.4399
739.903	7.87677
742.796	5.06151
745.689	5.8671
748.581	5.24435
751.474	5.26091
754.367	5.63284
757.26	3.3931
760.152	2.95599
763.045	1.4865
765.938	0.991699
768.83	2.15791
771.723	2.26369
774.616	2.81158
777.508	6.4088
780.401	7.78088
783.294	8.68127
786.187	12.4116
789.079	12.654
791.972	12.5006
794.865	13.5368
797.757	9.32269
800.65	7.26254
803.543	6.42282
806.435	4.97846
809.328	3.2908
812.221	1.66649
815.114	1.52365
818.006	0.325104
820.899	0.670334
823.792	0.104645
826.684	0.932114
829.577	0.483139
832.47	0.906998
835.362	0.134201
838.255	0.433319
841.148	0.80191
844.04	1.97876
846.933	2.8716
849.826	5.75404
852.719	9.19737
855.611	13.3611
858.504	18.2739
861.397	26.3237
864.289	33.0874
867.182	42.8
870.075	52.1862
872.967	60.9053
875.86	70.045
878.753	69.3185
881.646	67.3954
884.538	62.1592
887.431	58.2962
890.324	51.8278
893.216	40.4584
896.109	33.5592
899.002	24.9469
901.894	20.4939
904.787	17.9372
907.68	18.8328
910.573	18.6571
913.465	17.542
916.358	17.6605
919.251	15.987
922.143	11.446
925.036	9.60596
927.929	5.29131
930.822	2.25192
933.714	0.028473
936.607	0.4133
939.5	1.43399
942.392	1.15625
945.285	0.864212
948.178	0.760849
951.07	1.07883
953.963	3.46889
956.856	5.91852
959.749	7.40843
962.641	10.9888
965.534	12.2752
968.427	15.7149
971.319	17.04
974.212	16.4198
977.105	16.4687
979.997	17.4041
982.89	18.2051
985.783	20.6969
988.676	26.1498
991.568	34.995
994.461	44.2365
997.354	55.169
1000.25	66.604
1003.14	75.4564
1006.03	82.6111
1008.92	79.4941
1011.82	79.4694
1014.71	73.0676
1017.6	64.8143
1020.5	56.5916
1023.39	49.5677
1026.28	41.3833
1029.17	36.4178
1032.07	30.2331
1034.96	26.9498
1037.85	22.3189
1040.74	19.3628
1043.64	16.4244
1046.53	17.1437
1049.42	16.7159
1052.32	18.2338
1055.21	15.9713
1058.1	16.3166
1060.99	15.7316
1063.89	16.5969
1066.78	12.4322
1069.67	9.90497
1072.56	8.23805
1075.46	5.14858
1078.35	3.98573
1081.24	1.3239
1084.13	0.54158
1087.03	0.453995
1089.92	0.141785
1092.81	0.3647
1095.7	0.258667
1098.6	1.1111
1101.49	1.37059
1104.38	1.64804
1107.28	0.059448
1110.17	0.241043
1113.06	0.032761
1115.95	0.420227
1118.85	1.07959
1121.74	0.046188
1124.63	0.299927
1127.53	1.72641
1130.42	0.860107
1133.31	2.83641
1136.2	1.92403
1139.1	3.33432
1141.99	3.54433
1144.88	6.93765
1147.77	7.88031
1150.67	6.27139
1153.56	7.38045
1156.45	6.73683
1159.35	6.39674
1162.24	6.55383
1165.13	6.18541
1168.02	4.13713
1170.92	3.41577
1173.81	4.29224
1176.7	2.34699
1179.59	3.65063
1182.49	4.50653
1185.38	3.49205
1188.27	3.39189
1191.16	1.43793
1194.06	1.97662
1196.95	1.87788
1199.84	2.01743
1202.73	2.72832
1205.63	3.51788
1208.52	5.85939
1211.41	2.59351
1214.31	4.08354
1217.2	3.96892
1220.09	2.1402
1222.98	2.87938
1225.88	4.63419
1228.77	2.1554
1231.66	0.815964
1234.56	3.10046
1237.45	0.901459
1240.34	0.597198
1243.23	0.416962
1246.13	2.6497
1249.02	0.059875
1251.91	2.1122
1254.8	1.71889
1257.7	1.827
1260.59	0.641266
1263.48	3.39832
1266.38	1.8268
1269.27	1.08029
1272.16	2.0486
1275.05	1.15266
1277.95	0.164581
1280.84	0.964127
1283.73	0.017761
1286.62	2.71249
1289.52	2.45012
1292.41	3.11507
1295.3	0.005295
1298.19	1.63679
1301.09	0.162567
