Measurement: Raman, 532 nm, unoriented, Raman Data Processed
Mineral: Whewellite
Rruff sample: R050240
Ideal chemistry: CaC_2_O_4_H_2_O
Locality: Huron River, Milan, Ohio, USA
Source: Marcus Origlieri
Description: White fragment
Measured chemistry: Ca_1.00_C_2_O_4_Â·H_2_O
Raman shift (cm-1)	intensity
151.465	0
154.358	1073.64
157.25	2004.91
160.143	1075.44
163.036	512.291
165.928	9.82812
168.821	13.0176
171.714	67.918
174.607	25.9473
177.499	514.758
180.392	1281.93
183.285	2143.56
186.177	3017.24
189.07	4079.64
191.963	5912.41
194.855	8642.8
197.748	7838.3
200.641	4110.39
203.534	2325.94
206.426	1689.38
209.319	1340.38
212.212	758.666
215.104	180.785
217.997	4.82031
220.89	51.7598
223.782	0.517578
226.675	46.0137
229.568	9.85742
232.46	96.7598
235.353	207.324
238.246	169.107
241.138	371.272
244.031	471.82
246.924	726.018
249.817	898.414
252.709	1216.17
255.602	1446.24
258.495	1909.33
261.387	2106.55
264.28	1965.85
267.173	1545.43
270.066	1145.41
272.958	852.68
275.851	498.817
278.744	376.577
281.636	279.388
284.529	247.731
287.422	89.2383
290.314	249.693
293.207	137.246
296.1	79.8008
298.993	2.42578
301.885	75.4414
304.778	218.727
307.671	54.6855
310.563	65.8613
313.456	131.609
316.349	153.582
319.241	105.568
322.134	67.5742
325.027	20.916
327.92	190.166
330.812	290.594
333.705	345.881
336.598	219.853
339.49	266.414
342.383	122.779
345.276	29.2324
348.168	26.7207
351.061	166.488
353.954	176.049
356.846	217.389
359.739	5.98242
362.632	11.4355
365.525	23.709
368.417	73.8496
371.31	107.938
374.203	74.8496
377.095	155.592
379.988	88.3223
382.881	227.789
385.774	114.906
388.666	211.893
391.559	131.611
394.452	28.3535
397.344	29.7031
400.237	91.9844
403.13	81.9219
406.022	181.158
408.915	194.842
411.808	60.9395
414.7	10.5293
417.593	150.367
420.486	62.5
423.379	95.918
426.271	10.7148
429.164	22.6465
432.057	95.959
434.949	310.553
437.842	70.2539
440.735	199.381
443.627	63.8613
446.52	206.815
449.413	149.381
452.306	46.3008
455.198	45.0039
458.091	51.5898
460.984	181.978
463.876	134.031
466.769	144.871
469.662	311.111
472.555	340.133
475.447	505.885
478.34	479.961
481.233	778.309
484.125	1127.82
487.018	1501.69
489.911	1905.83
492.803	1920.14
495.696	1914.18
498.589	2128.35
501.481	2591.14
504.374	3454.56
507.267	4059.03
510.16	4751.95
513.052	4631.52
515.945	3405.23
518.838	2318.83
521.73	1441.12
524.623	871.42
527.516	556.076
530.408	293.918
533.301	278.266
536.194	178.205
539.087	144.484
541.979	150.188
544.872	19.5039
547.765	89.6973
550.657	39.3457
553.55	14.5918
556.443	52.4824
559.335	66.1758
562.228	110.379
565.121	178.691
568.014	262.328
570.906	315.262
573.799	292.185
576.692	314.572
579.584	267.256
582.477	457.258
585.37	421.744
588.263	589.324
591.155	708.377
594.048	1031.63
596.941	953.338
599.833	829.783
602.726	440.26
605.619	221.748
608.511	113.674
611.404	187.822
614.297	117.305
617.189	230.252
620.082	168
622.975	247.219
625.868	65.209
628.76	149.342
631.653	68.5098
634.546	28.6133
637.438	90.9375
640.331	120.82
643.224	7.85938
646.116	35.416
649.009	78.3672
651.902	29.3633
654.795	59.7617
657.687	24.8398
660.58	46.0234
663.473	108.99
666.365	182.416
669.258	187.426
672.151	69.8828
675.043	52.3652
677.936	83.1914
680.829	154.002
683.721	272.469
686.614	144.9
689.507	45.8184
692.4	108.15
695.292	52.7305
698.185	48.832
701.078	134.703
703.97	179.639
706.863	166.275
709.756	192.867
712.649	158.873
715.541	234.777
718.434	158.828
721.327	248.572
724.219	82.8418
727.112	112.623
730.005	180.473
732.897	66.9434
735.79	3.27539
738.683	13.3242
741.576	138.697
744.468	109.012
747.361	176.059
750.254	156.551
753.146	78.3926
756.039	28.4336
758.932	106.734
761.824	4.94141
764.717	32.6602
767.61	326.699
770.503	248.117
773.395	238.059
776.288	147.228
779.181	66.5508
782.073	263.633
784.966	266.668
787.859	317.508
790.751	138.531
793.644	112.613
796.537	190.801
799.429	226.469
802.322	191.434
805.215	270.891
808.108	37.3242
811	271.371
813.893	157.402
816.786	96.418
819.678	52.7617
822.571	56.9023
825.464	124.633
828.356	135.18
831.249	7.02344
834.142	92.3281
837.034	24.3711
839.927	84.3594
842.82	9.53906
845.713	188.793
848.605	206.973
851.498	141.398
854.391	304.086
857.283	316.137
860.176	482.441
863.069	470.434
865.962	372.988
868.854	256.394
871.747	62.4688
874.64	33.2695
877.532	115.418
880.425	174.32
883.318	344.324
886.21	332.59
889.103	522.481
891.996	858.543
894.889	1524.78
897.781	2396.47
900.674	3297.76
903.567	4235.54
906.459	3523.25
909.352	1564.53
912.245	503.691
915.138	307.512
918.03	162.996
920.923	164.598
923.816	140.289
926.708	132.176
929.601	58.4766
932.494	12.6836
935.386	19.2969
938.279	159.766
941.172	164.852
944.064	153.582
946.957	247.871
949.85	300.797
952.743	175.051
955.635	150.773
958.528	92.7695
961.421	107.809
964.313	145.773
967.206	18.375
970.099	132.684
972.991	239.809
975.884	171.551
978.777	72.1133
981.67	146.738
984.562	276.523
987.455	181.867
990.348	57.0508
993.24	112.394
996.133	81.0117
999.026	77.125
1001.92	384.594
1004.81	210.781
1007.7	259.906
1010.6	40.418
1013.49	248.664
1016.38	136.301
1019.27	245.856
1022.17	15.125
1025.06	73.1953
1027.95	132.102
1030.85	198.856
1033.74	355.246
1036.63	293.941
1039.52	306.613
1042.42	83.4375
1045.31	258.426
1048.2	143.094
1051.09	23.5078
1053.99	97.7227
1056.88	89.625
1059.77	138.602
1062.66	151.141
1065.56	72.332
1068.45	182.34
1071.34	187.828
1074.24	107.309
1077.13	191.492
1080.02	204.156
1082.91	224.965
1085.81	17.2812
1088.7	200.836
1091.59	120.184
1094.48	95.082
1097.38	158.414
1100.27	87.0234
1103.16	262.203
1106.06	171.461
1108.95	129.59
1111.84	179.797
1114.73	243.75
1117.63	321.441
1120.52	363.668
1123.41	154.297
1126.3	203.051
1129.2	313.121
1132.09	261.746
1134.98	354.258
1137.88	303.856
1140.77	216.891
1143.66	140.453
1146.55	16.7461
1149.45	209.332
1152.34	249.109
1155.23	213.434
1158.12	252.234
1161.02	157.406
1163.91	93.5664
1166.8	100.484
1169.69	42.6172
1172.59	157.41
1175.48	188.305
1178.37	111.68
1181.27	130.109
1184.16	230.785
1187.05	381.836
1189.94	481.062
1192.84	334.602
1195.73	208.828
1198.62	247.578
1201.52	89.0938
1204.41	215.523
1207.3	166.133
1210.19	398.644
1213.09	226.957
1215.98	101.102
1218.87	310.731
1221.76	168.277
1224.66	77.8516
1227.55	257.449
1230.44	188.664
1233.33	206.113
1236.23	107.269
1239.12	298.074
1242.01	206.965
1244.9	161.82
1247.8	291.633
1250.69	366.754
1253.58	138.629
1256.48	276.473
1259.37	414.68
1262.26	399.519
1265.15	27.4375
1268.05	190.309
1270.94	126.961
1273.83	112.543
1276.72	157.703
1279.62	84.8125
1282.51	60.2305
1285.4	9.40625
1288.3	77
1291.19	62.3672
