Measurement: Raman, 780 nm, unoriented, Raman Data Processed
Mineral: Whewellite
Rruff sample: R050240
Ideal chemistry: CaC_2_O_4_H_2_O
Locality: Huron River, Milan, Ohio, USA
Source: Marcus Origlieri
Description: White fragment
Measured chemistry: Ca_1.00_C_2_O_4_Â·H_2_O
Raman shift (cm-1)	intensity
142.665	0
145.558	6.28125
148.45	588.703
151.343	1311.06
154.236	2380.8
157.129	3524.49
160.021	4141.36
162.914	4209.76
165.807	3902.27
168.699	2108.74
171.592	1203.73
174.485	894.633
177.377	650.055
180.27	946.141
183.163	2752.55
186.055	3422.18
188.948	4256.16
191.841	5733.31
194.734	7503.72
197.626	7228.23
200.519	4406.06
203.412	2456.15
206.304	1587.99
209.197	1173.91
212.09	769.406
214.982	152.883
217.875	3.96094
220.768	182.109
223.661	113.578
226.553	114.18
229.446	140.789
232.339	386.945
235.231	208.875
238.124	16.3438
241.017	95.7578
243.91	321.484
246.802	653.008
249.695	999.859
252.588	1175.98
255.48	1645.69
258.373	2100.8
261.266	2428.13
264.158	1914.62
267.051	1383.02
269.944	1137.08
272.837	857.656
275.729	733.156
278.622	412.555
281.515	151.5
284.407	296.227
287.3	127.398
290.193	31.4609
293.085	180.266
295.978	150.156
298.871	29.8125
301.764	153.758
304.656	291.547
307.549	414.75
310.442	318.195
313.334	261.602
316.227	593.289
319.12	474.602
322.012	572.719
324.905	274.336
327.798	652.273
330.69	385.383
333.583	346.508
336.476	391.297
339.369	286.07
342.261	145.039
345.154	237.219
348.047	337.914
350.939	378.719
353.832	329.969
356.725	120.539
359.618	145.977
362.51	234.445
365.403	205.086
368.296	46.1484
371.188	128.086
374.081	187.07
376.974	171.609
379.866	21.6953
382.759	46.4922
385.652	43.7969
388.545	134.68
391.437	12.8516
394.33	140.75
397.223	212.602
400.115	232.57
403.008	78.5625
405.901	143.086
408.793	263.758
411.686	267.703
414.579	143.703
417.471	122.602
420.364	152.781
423.257	340.422
426.15	23.3281
429.042	349.328
431.935	274.797
434.828	383.977
437.72	92.2109
440.613	24.3984
443.506	230.508
446.399	322.328
449.291	246.609
452.184	253.664
455.077	275.914
457.969	115.062
460.862	265.516
463.755	195.336
466.647	217.352
469.54	546.625
472.433	353.328
475.325	630.789
478.218	758.281
481.111	1101.73
484.004	1406.27
486.896	1623.54
489.789	2244.65
492.682	2299.95
495.574	2343.43
498.467	2613.92
501.36	2850.7
504.252	3087.29
507.145	3633.56
510.038	4120.48
512.931	3959.36
515.823	3150.91
518.716	2413.12
521.609	1571.77
524.501	1066.82
527.394	744.922
530.287	520.625
533.179	472.188
536.072	59.4375
538.965	80.4453
541.858	109
544.75	51.0156
547.643	38.1797
550.536	41.8984
553.428	44.5703
556.321	144.211
559.214	218.727
562.106	99.2188
564.999	140.445
567.892	139.219
570.785	189.391
573.677	293.141
576.57	203.75
579.463	517.297
582.355	543.578
585.248	727.648
588.141	901.266
591.034	1079.56
593.926	1225.86
596.819	1053.03
599.712	944.871
602.604	914.652
605.497	639.184
608.39	741.031
611.282	515.109
614.175	301.668
617.068	470.504
619.961	511.488
622.853	383.176
625.746	496.523
628.639	315.234
631.531	392.914
634.424	231.898
637.317	82.1406
640.209	326.828
643.102	56.793
645.995	132.203
648.888	268.992
651.78	35.9766
654.673	100.203
657.566	185.328
660.458	73.1992
663.351	89.4375
666.244	98.1367
669.136	270.965
672.029	270.875
674.922	304.297
677.814	240.504
680.707	100.191
683.6	214.945
686.493	275.609
689.385	167.191
692.278	437.09
695.171	292.938
698.063	365.582
700.956	216.062
703.849	273.059
706.741	551.789
709.634	469.856
712.527	276.578
715.42	355.856
718.312	206.508
721.205	118.801
724.098	46.3789
726.99	206.238
729.883	246.836
732.776	257.055
735.668	78.6367
738.561	218.648
741.454	110.051
744.347	16.0938
747.239	136.035
750.132	278.695
753.025	13.3398
755.917	29.6055
758.81	88.7578
761.703	215.324
764.596	72.9922
767.488	208.742
770.381	6.62109
773.274	62.043
776.166	82.4609
779.059	202.461
781.952	340
784.844	445.613
787.737	134.766
790.63	125.805
793.523	124.191
796.415	197.613
799.308	125.535
802.201	43.9688
805.093	49.0781
807.986	230.992
810.879	212.867
813.771	382.156
816.664	393.289
819.557	360.902
822.449	188.871
825.342	144.344
828.235	288.727
831.128	85.8281
834.02	119.383
836.913	117.367
839.806	1.81641
842.698	23.7812
845.591	164.133
848.484	70.7109
851.376	6.35547
854.269	229.344
857.162	149.383
860.055	383.273
862.947	305.773
865.84	166.934
868.733	8.97266
871.625	23.8477
874.518	199.188
877.411	158.434
880.303	108.594
883.196	184.766
886.089	519.062
888.982	460.906
891.874	831.25
894.767	1520.81
897.66	2346.99
900.552	3214.97
903.445	3644.2
906.338	2354.76
909.231	1299.5
912.123	580.07
915.016	296.027
917.909	16.875
920.801	356.199
923.694	92.5781
926.587	0.152344
929.479	167.004
932.372	259.93
935.265	160.894
938.158	147.496
941.05	153.699
943.943	96.8242
946.836	103.836
949.728	151.383
952.621	50.4922
955.514	222.484
958.406	384.391
961.299	400.078
964.192	245.984
967.085	216.059
969.977	25.4336
972.87	81.9492
975.763	115.129
978.655	12.8672
981.548	56.082
984.441	199.098
987.333	122.695
990.226	125.566
993.119	193.438
996.011	4.61328
998.904	55.0898
1001.8	77.2031
1004.69	209.461
1007.58	131.566
1010.48	136.973
1013.37	167.582
1016.26	208.559
1019.15	260.356
1022.05	421.488
1024.94	519.91
1027.83	451.867
1030.72	278.394
1033.62	570.035
1036.51	492.918
1039.4	488.32
1042.3	688.734
1045.19	304.043
1048.08	386.152
1050.97	407.199
1053.87	552.32
1056.76	336.465
1059.65	449.117
1062.54	387.82
1065.44	433.832
1068.33	397.469
1071.22	523.227
1074.11	305.246
1077.01	468.191
1079.9	232.637
1082.79	359.035
1085.68	119.394
1088.58	178.66
1091.47	254.977
1094.36	82.3867
1097.26	101.519
1100.15	126.211
1103.04	137.383
1105.93	26.2227
1108.83	89.5312
1111.72	225.273
1114.61	110.469
1117.51	10.3047
1120.4	143.648
1123.29	22.1289
1126.18	62.3828
1129.08	16.125
1131.97	1.79297
1134.86	87.1953
1137.75	207.609
1140.65	245.629
1143.54	231.273
1146.43	268.582
1149.33	240.258
1152.22	294.801
1155.11	195.481
1158	268.973
1160.89	355.289
1163.79	313.477
1166.68	439.082
1169.57	334.766
1172.47	369.926
1175.36	425.293
1178.25	492.172
1181.14	349.547
1184.04	306.703
1186.93	293.211
1189.82	378.562
1192.71	291.527
1195.61	174.023
1198.5	249.473
1201.39	317.961
1204.29	328.887
1207.18	374.078
1210.07	344.449
1212.96	329.613
1215.86	209.512
1218.75	312.234
1221.64	381.84
1224.54	120.543
1227.43	59.2852
1230.32	130.574
1233.21	270.082
1236.11	205.934
1239	221.871
1241.89	176.898
1244.78	119.891
1247.68	274.297
1250.57	278.652
1253.46	274.144
1256.35	117.191
1259.25	315.789
1262.14	205.992
1265.03	275.527
1267.92	237.742
1270.82	200.785
1273.71	38.2148
1276.6	162.598
