Measurement: Raman, 514 nm, unoriented, Raman Data Processed
Mineral: Whewellite
Rruff sample: R050240
Ideal chemistry: CaC_2_O_4_H_2_O
Locality: Huron River, Milan, Ohio, USA
Source: Marcus Origlieri
Description: White fragment
Measured chemistry: Ca_1.00_C_2_O_4_Â·H_2_O
Raman shift (cm-1)	intensity
52.866	0
57.065	115.845
61.262	37.844
65.458	77.06
69.651	971.614
73.842	3712.45
78.031	5394.58
82.218	4049.59
86.404	4124.75
90.587	5222.45
94.768	3532.1
98.947	2553.41
103.124	2195.72
107.3	2382.02
111.473	2441.64
115.644	2963.04
119.813	3192.81
123.981	4285.61
128.146	5982.3
132.309	8148.72
136.47	9263.22
140.63	8589.7
144.787	8030.98
148.942	6069.09
153.096	4128.51
157.247	2985.95
161.396	2434.59
165.544	2011.3
169.689	1905.06
173.833	2084.85
177.974	2614.66
182.114	2897.45
186.251	3663.21
190.387	5411.9
194.52	6315.55
198.652	7181.45
202.782	9769.49
206.909	10926.7
211.035	9466.85
215.159	6902.36
219.281	6701.38
223.4	7451.2
227.518	4466.27
231.634	2625.35
235.748	2053.64
239.86	1936.62
243.97	2155.03
248.079	2737.12
252.185	2654.68
256.289	2089.52
260.391	1512.58
264.492	1390.96
268.59	1321.81
272.687	1101.68
276.781	1019.15
280.874	879.341
284.964	743.204
289.053	683.696
293.14	791.777
297.225	808.397
301.308	754.502
305.389	576.066
309.468	392.107
313.545	254.628
317.62	172.14
321.693	131.029
325.765	83.872
329.834	1.895
333.902	25.724
337.967	53.746
342.031	49.154
346.093	4.077
350.153	53.965
354.21	98.579
358.267	36.923
362.321	59.057
366.373	110.052
370.423	61.072
374.471	84.174
378.518	74.077
382.563	29.652
386.605	37.476
390.646	181.164
394.685	295.404
398.722	156.04
402.757	95.984
406.79	26.913
410.821	33.336
414.851	16.897
418.878	36.75
422.904	19.132
426.927	78.165
430.949	8.705
434.969	121.445
438.987	129.443
443.003	173.648
447.018	230.032
451.03	321.592
455.041	363.326
459.049	524.239
463.056	645.292
467.061	867.652
471.064	1079.91
475.065	1350.66
479.064	1978.02
483.062	2898.61
487.057	4545.37
491.051	7875.61
495.043	15922
499.032	32798.2
503.02	46633.1
507.007	31095.5
510.991	14729.9
514.973	7377.15
518.954	4308.23
522.933	2972.61
526.91	2121.08
530.885	1312.79
534.858	850.805
538.829	597.151
542.799	443.868
546.766	301.779
550.732	289.548
554.696	202.6
558.658	240.447
562.618	205.402
566.576	236.367
570.533	258.53
574.488	231.562
578.44	308.328
582.391	418.932
586.341	630.955
590.288	957.993
594.233	1123.65
598.177	1041.39
602.119	798.387
606.059	495.539
609.997	333.066
613.933	215.92
617.868	150.562
621.801	31.115
625.731	131.553
629.66	27.854
633.588	66.006
637.513	45.366
641.437	136.588
645.358	81.979
649.278	55.116
653.196	80.808
657.113	43.662
661.027	29.443
664.94	33.347
668.851	68.065
672.76	6.325
676.667	43.104
680.572	47.477
684.476	53.816
688.378	11.134
692.278	34.396
696.176	52.455
700.072	32.492
703.967	40.711
707.86	77.816
711.751	540.197
715.64	149.449
719.527	60.624
723.413	206.753
727.297	70.759
731.179	81.537
735.059	39.85
738.937	39.543
742.814	85.795
746.689	37.915
750.562	21.152
754.433	103.567
758.303	143.164
762.17	15.643
766.036	10.008
769.901	113.179
773.763	314.226
777.624	253.439
781.482	293.832
785.339	243.801
789.195	174.838
793.048	157.272
796.9	102.105
800.75	6.397
804.598	40.69
808.445	94.713
812.289	60.816
816.132	117.592
819.973	80.186
823.813	153.217
827.65	109.137
831.486	80.451
835.32	166.118
839.152	151.522
842.983	178.553
846.812	178.035
850.639	393.852
854.464	411.515
858.288	729.698
862.11	2842.81
865.93	3364.74
869.748	1877.82
873.564	1187.71
877.379	1284.07
881.192	1917.87
885.004	2844.19
888.813	4636
892.621	12502
896.427	43092.8
900.232	10130.9
904.034	2452.81
907.835	1225.73
911.634	887.133
915.432	998.751
919.227	951.805
923.021	965.41
926.813	1097.9
930.604	1245.43
934.393	1232.98
938.18	1394.59
941.965	1365.24
945.749	1328.61
949.53	1033.04
953.311	835.848
957.089	567.526
960.866	444.024
964.641	337.537
968.414	225.146
972.185	213.652
975.955	201.907
979.723	172.344
983.49	209.885
987.254	164.739
991.017	163.55
994.779	104.791
998.538	134.804
1002.3	96.778
1006.05	68.883
1009.81	182.699
1013.56	183.573
1017.31	163.055
1021.06	215.446
1024.81	255.038
1028.55	229.801
1032.3	272.757
1036.04	216.646
1039.78	308.149
1043.52	283.833
1047.26	214.571
1050.99	395.207
1054.73	178.65
1058.46	147.738
1062.19	548.659
1065.92	456.938
1069.65	40.214
1073.37	51.56
1077.1	34.408
1080.82	89.853
1084.54	280.224
1088.26	407.173
1091.97	191.859
1095.69	61.812
1099.4	15.716
1103.12	120.874
1106.83	40.455
1110.54	25.223
1114.24	6.221
1117.95	52.974
1121.65	139.55
1125.35	113.285
1129.06	43.642
1132.75	6.618
1136.45	0.792
1140.15	5.289
1143.84	2.38
1147.53	21.392
1151.22	40.589
1154.91	18.058
1158.6	91.131
1162.28	82.58
1165.97	84.709
1169.65	127.987
1173.33	34.487
1177.01	87.093
1180.69	86.571
1184.36	149.672
1188.04	173.155
1191.71	120.19
1195.38	151.838
1199.05	59.695
1202.71	207.188
1206.38	145.774
1210.04	110.45
1213.71	111.683
1217.37	149.042
1221.03	127.741
1224.68	126.049
1228.34	119.734
1231.99	126.39
1235.65	145.191
1239.3	139.589
1242.95	169.696
1246.59	155.395
1250.24	127.851
1253.88	159.37
1257.53	35.095
1261.17	28.44
1264.81	160.114
1268.45	62.477
1272.08	78.774
1275.72	138.027
1279.35	115.166
1282.98	114.871
1286.61	100.935
1290.24	16.34
1293.87	22.488
1297.49	73.405
1301.11	71.65
1304.73	17.494
1308.36	27.551
1311.97	13.587
1315.59	129.452
1319.2	26.249
1322.82	3.836
1326.43	143.269
1330.04	34.305
1333.65	28.81
1337.26	40.561
1340.86	10.497
1344.47	38.251
1348.07	57.977
1351.67	67.747
1355.27	13.536
1358.87	28.945
1362.46	18.566
1366.06	3.979
1369.65	37.476
1373.24	17.312
1376.83	31.893
1380.42	44.661
1384	64.314
1387.59	198.07
1391.17	210.772
1394.75	318.694
1398.33	439
1401.91	505.492
1405.49	310.302
1409.06	365.108
1412.64	272.098
1416.21	217.616
1419.78	297.559
1423.35	197.743
1426.91	182.479
1430.48	186.698
1434.05	257.151
1437.61	442.723
1441.17	409.261
1444.73	575.568
1448.29	1027.96
1451.84	1285.4
1455.4	1724.81
1458.95	3775.21
1462.5	13143.1
1466.05	19291.2
1469.6	6431.72
1473.15	2936.44
1476.69	2900.33
1480.24	3476.2
1483.78	5646.92
1487.32	10590
1490.86	17191
1494.39	15902.7
1497.93	6933.33
1501.46	2611.75
1505	1065.3
1508.53	429.23
1512.06	155.228
1515.59	7.839
1519.11	29.881
1522.64	188.005
