Measurement: Raman, 780 nm, unoriented, Raman Data Processed
Mineral: Whewellite
Rruff sample: R050526
Ideal chemistry: CaC_2_O_4_H_2_O
Locality: Dresden, Saxony, Germany
Source: University of Arizona Mineral Museum
Description: Coating of colorless fragments
Measured chemistry: Ca_1.00_C_2.00_O_4_Â·H_2_O ; C not measured but estimated by difference.
Raman shift (cm-1)	intensity
150.713	0
153.606	3.09999
156.499	6.95941
159.391	14.166
162.284	10.651
165.177	1.69399
168.069	1.99544
170.962	1.31522
173.855	4.71162
176.747	13.7294
179.64	22.0318
182.533	25.2304
185.425	35.3274
188.318	59.2494
191.211	101.425
194.104	135.853
196.996	133.531
199.889	125.082
202.782	144.153
205.674	163.815
208.567	183.413
211.46	208.193
214.352	257.47
217.245	359.778
220.138	512.765
223.03	674.536
225.923	470.487
228.816	265.921
231.709	228.868
234.601	242.319
237.494	273.092
240.387	314.61
243.279	371.408
246.172	479.398
249.065	568.814
251.958	464.861
254.85	260.637
257.743	138.389
260.636	77.8926
263.528	49.6741
266.421	34.6407
269.314	28.9377
272.207	24.3115
275.099	24.9853
277.992	28.3287
280.885	32.7618
283.777	33.6528
286.67	32.2905
289.563	26.6138
292.455	19.8305
295.348	13.0896
298.241	10.1951
301.134	6.25922
304.026	2.58316
306.919	0.219757
309.812	0.873032
312.704	0.913162
315.597	0.830673
318.49	0.429825
321.382	0.364655
324.275	1.71443
327.168	1.48741
330.06	0.482605
332.953	1.16132
335.846	0.762878
338.739	0.389633
341.631	0.086601
344.524	0.581291
347.417	1.57034
350.309	1.86517
353.202	2.804
356.095	2.56826
358.987	4.39406
361.88	3.25793
364.773	4.42361
367.666	5.31638
370.558	5.48515
373.451	5.01543
376.344	6.75378
379.236	6.76127
382.129	7.34008
385.022	6.12216
387.914	6.34103
390.807	5.94106
393.7	5.22113
396.592	5.13298
399.485	3.96542
402.378	4.02922
405.271	2.89831
408.163	2.1782
411.056	2.13803
413.949	0.148994
416.841	0.890686
419.734	0.320816
422.627	1.00757
425.519	0.143501
428.412	0.773636
431.305	0.226601
434.198	0.292526
437.09	0.187103
439.983	0.918404
442.876	1.23722
445.768	1.52358
448.661	3.51766
451.554	4.17549
454.447	4.5092
457.339	6.08667
460.232	6.57872
463.125	7.2285
466.017	7.68277
468.91	8.91774
471.803	9.44572
474.695	13.3537
477.588	17.6483
480.481	27.0314
483.373	41.8137
486.266	65.6847
489.159	93.556
492.052	128.727
494.944	177.905
497.837	259.391
500.73	360.824
503.622	407.876
506.515	338.601
509.408	254.436
512.301	228.234
515.193	250.019
518.086	298.383
520.979	328.342
523.871	284.241
526.764	188.364
529.657	108.748
532.549	61.6633
535.442	31.444
538.335	15.3749
541.227	6.51456
544.12	1.89371
547.013	0.629662
549.906	2.48083
552.798	0.944237
555.691	2.454
558.584	4.92478
561.476	10.6539
564.369	16.3931
567.262	23.3348
570.154	33.6867
573.047	44.2826
575.94	60.7837
578.833	81.4034
581.725	106.807
584.618	138.007
587.511	177.312
590.403	214.843
593.296	244.752
596.189	244.322
599.082	207.362
601.974	151.25
604.867	97.7723
607.76	60.6773
610.652	36.6212
613.545	23.9675
616.438	13.9582
619.33	7.84563
622.223	4.6153
625.116	2.93526
628.009	1.11706
630.901	1.33223
633.794	0.32206
636.687	0.082924
639.579	0.177917
642.472	0.468582
645.365	0.596825
648.257	1.25259
651.15	1.40453
654.043	1.65905
656.936	1.00835
659.828	0.910942
662.721	0.517433
665.614	1.05079
668.506	0.628822
671.399	0.256035
674.292	0.461075
677.184	0.092957
680.077	0.612144
682.97	0.787994
685.862	1.04804
688.755	0.736336
691.648	0.573242
694.541	0.51152
697.433	1.1212
700.326	1.97713
703.219	1.9191
706.111	3.3893
709.004	4.44981
711.897	6.0911
714.789	4.95237
717.682	3.53422
720.575	3.21373
723.468	1.40864
726.36	2.45668
729.253	1.76304
732.146	1.29118
735.038	0.129631
737.931	0.677895
740.824	0.361572
743.716	0.291634
746.609	0.284096
749.502	0.191429
752.395	1.05738
755.287	0.282242
758.18	0.534851
761.073	1.75259
763.965	2.22561
766.858	2.79305
769.751	3.93522
772.644	6.02467
775.536	6.63854
778.429	7.1932
781.322	6.95962
784.214	4.88358
787.107	2.8224
790	2.39403
792.892	1.63158
795.785	0.715294
798.678	0.526321
801.571	1.31508
804.463	0.724388
807.356	1.21462
810.249	0.81237
813.141	1.20271
816.034	0.318733
818.927	0.136169
821.819	0.044151
824.712	0.308212
827.605	0.23996
830.497	1.11785
833.39	0.381828
836.283	0.965561
839.176	1.20924
842.068	0.772247
844.961	0.649361
847.854	3.11036
850.746	5.69224
853.639	10.9476
856.532	16.4471
859.424	26.4652
862.317	38.7842
865.21	54.2052
868.103	66.2232
870.995	37.3783
873.888	30.6048
876.781	38.4655
879.673	58.8117
882.566	109.942
885.459	165.116
888.351	209.618
891.244	319.113
894.137	617.213
897.03	966.405
899.922	199.111
902.815	46.7433
905.708	24.5284
908.6	18.8433
911.493	18.165
914.386	21.8057
917.278	26.7965
920.171	31.1836
923.064	35.6396
925.957	43.2242
928.849	50.2899
931.742	57.1115
934.635	63.87
937.527	69.4421
940.42	74.5895
943.313	74.3761
946.205	68.2176
949.098	57.1671
951.991	46.254
954.884	35.3399
957.776	26.168
960.669	18.8442
963.562	13.0344
966.454	9.99461
969.347	6.25612
972.24	3.64167
975.132	1.75716
978.025	0.973633
980.918	0.012993
983.811	1.00388
986.703	1.58003
989.596	0.62587
992.489	0.811676
995.381	0.460205
998.274	0.425888
1001.17	1.03138
1004.06	1.15047
1006.95	2.5377
1009.85	2.88631
1012.74	2.14655
1015.63	3.40222
1018.52	3.37011
1021.42	2.43229
1024.31	2.48637
1027.2	3.08968
1030.09	2.05622
1032.99	0.91304
1035.88	1.99196
1038.77	1.5396
1041.66	2.07149
1044.56	2.05106
1047.45	0.954605
1050.34	0.669518
1053.23	0.215683
1056.13	0.590714
1059.02	0.249321
1061.91	0.536041
1064.81	0.562325
1067.7	0.645714
1070.59	1.84469
1073.48	2.0144
1076.38	4.06909
1079.27	5.56161
1082.16	12.3714
1085.06	24.16
1087.95	31.3873
1090.84	18.3487
1093.73	13.2547
1096.63	6.85069
1099.52	3.43244
1102.41	1.97995
1105.3	1.13053
1108.2	0.675148
1111.09	1.06656
1113.98	0.46291
1116.88	0.456745
1119.77	0.19202
1122.66	0.383331
1125.55	0.108654
1128.45	0.608578
1131.34	0.308182
1134.23	0.209824
1137.12	0.782696
1140.02	0.777203
1142.91	0.985386
1145.8	0.219406
1148.69	0.198906
1151.59	0.993889
1154.48	0.465618
1157.37	0.584393
1160.27	0.133949
1163.16	0.567078
1166.05	0.210457
1168.94	1.37785
1171.84	1.50941
1174.73	1.42008
1177.62	1.6971
1180.51	1.56047
1183.41	0.846703
1186.3	1.91488
1189.19	0.855923
1192.09	1.35394
1194.98	1.65751
1197.87	1.51314
1200.76	1.02584
1203.66	1.26394
1206.55	1.19206
1209.44	0.88221
1212.33	0.658215
1215.23	1.52392
1218.12	1.276
1221.01	1.32438
1223.9	0.380695
1226.8	1.25761
1229.69	1.41275
1232.58	0.828465
1235.47	0.213814
1238.37	0.967636
1241.26	0.639931
1244.15	0.367336
1247.05	0.166637
1249.94	0.69511
1252.83	0.656723
1255.72	0.60437
1258.62	0.625614
1261.51	0.349308
1264.4	0.535118
1267.3	0.711838
1270.19	0.994068
1273.08	0.302967
1275.97	1.07733
1278.87	0.798382
1281.76	0.555779
1284.65	0.284889
