Measurement: Raman, 532 nm, unoriented, Raman Data Processed
Mineral: Whewellite
Rruff sample: R050526
Ideal chemistry: CaC_2_O_4_H_2_O
Locality: Dresden, Saxony, Germany
Source: University of Arizona Mineral Museum
Description: Coating of colorless fragments
Measured chemistry: Ca_1.00_C_2.00_O_4_Â·H_2_O ; C not measured but estimated by difference.
Raman shift (cm-1)	intensity
150.226	0
153.119	5.44659
156.012	13.7835
158.905	14.7355
161.797	18.3713
164.69	3.3371
167.583	0.422607
170.475	2.83978
173.368	3.4787
176.261	27.8558
179.153	57.0854
182.046	62.4927
184.939	73.3206
187.832	118.064
190.724	200.192
193.617	301.602
196.51	318.829
199.402	276.771
202.295	256.484
205.188	269.654
208.08	304.961
210.973	351.596
213.866	447.853
216.758	640.715
219.651	1001.43
222.544	1503.68
225.437	1307.43
228.329	599.084
231.222	351.115
234.115	310.428
237.007	333.455
239.9	378.772
242.793	448.503
245.685	580.164
248.578	738.616
251.471	711
254.364	442.914
257.256	237.919
260.149	136.973
263.042	92.9492
265.934	64.1266
268.827	53.1669
271.72	44.3428
274.613	41.4547
277.505	47.4349
280.398	54.9205
283.291	55.8612
286.183	53.0118
289.076	49.2924
291.969	36.168
294.861	26.6704
297.754	20.6404
300.647	13.6323
303.539	11.6281
306.432	1.77826
309.325	0.931702
312.218	0.97821
315.11	2.61682
318.003	1.7503
320.896	2.78937
323.788	2.56982
326.681	4.03784
329.574	1.76019
332.466	1.55585
335.359	0.492004
338.252	1.12683
341.145	0.379944
344.037	2.80225
346.93	1.24262
349.823	2.41711
352.715	3.19074
355.608	9.95252
358.501	8.32696
361.394	9.5069
364.286	8.96387
367.179	9.63208
370.072	11.566
372.964	12.5919
375.857	15.123
378.75	16.4175
381.642	16.1636
384.535	17.0435
387.428	16.7525
390.32	16.6531
393.213	17.7268
396.106	12.3034
398.999	11.7878
401.891	9.22632
404.784	7.76257
407.677	5.77197
410.569	6.01807
413.462	5.9295
416.355	3.90222
419.248	0.255676
422.14	1.55286
425.033	0.022217
427.926	0.697205
430.818	0.054993
433.711	3.63568
436.604	0.955139
439.496	2.85706
442.389	0.529663
445.282	2.40747
448.174	7.22772
451.067	10.4249
453.96	12.5567
456.853	13.4042
459.745	13.3963
462.638	16.6582
465.531	19.5091
468.423	21.2552
471.316	25.9276
474.209	35.4552
477.101	46.6485
479.994	66.8872
482.887	95.9068
485.779	144.995
488.672	222.743
491.565	331.361
494.458	484.878
497.35	722.766
500.243	1033.99
503.136	1250.46
506.028	1100.06
508.921	811.013
511.814	696.221
514.707	742.433
517.599	883.812
520.492	999.3
523.385	920.541
526.277	645.649
529.17	387.143
532.063	217.116
534.955	121.372
537.848	68.9759
540.741	33.0036
543.634	13.8709
546.526	1.63721
549.419	2.86774
552.312	0.354431
555.204	0.988953
558.097	2.55633
560.99	7.77118
563.882	20.0067
566.775	34.6418
569.668	43.3746
572.561	61.1642
575.453	83.9242
578.346	113.849
581.239	156.815
584.131	211.346
587.024	281.647
589.917	356.743
592.809	426.836
595.702	450.855
598.595	403.807
601.487	305.5
604.38	199.329
607.273	125.102
610.166	77.9379
613.058	49.3818
615.951	28.3651
618.844	16.3686
621.736	7.20441
624.629	1.82031
627.522	0.278381
630.414	2.23816
633.307	3.62048
636.2	1.1853
639.093	0.193604
641.985	1.15021
644.878	1.67413
647.771	4.03918
650.663	3.8219
653.556	6.74109
656.449	7.8067
659.341	9.04279
662.234	7.83618
665.127	5.8443
668.02	4.60284
670.912	7.34106
673.805	1.97345
676.698	1.6228
679.59	4.69092
682.483	2.20752
685.376	2.73377
688.269	6.55029
691.161	3.97412
694.054	2.91534
696.947	1.49194
699.839	4.02332
702.732	5.5896
705.625	7.82526
708.517	9.62628
711.41	8.94757
714.303	8.78412
717.196	8.50214
720.088	6.1947
722.981	3.34766
725.874	1.76923
728.766	2.30707
731.659	0.503418
734.552	3.82953
737.444	0.583984
740.337	2.59619
743.23	2.81482
746.122	0.971252
749.015	1.04718
751.908	0.472168
754.801	0.552185
757.693	4.57068
760.586	5.13281
763.479	7.39374
766.371	10.1733
769.264	14.1802
772.157	15.3633
775.049	19.9905
777.942	22.4879
780.835	24.116
783.727	20.4723
786.62	10.9026
789.513	6.37671
792.406	7.35419
795.298	5.78754
798.191	3.81561
801.084	4.97321
803.976	2.86334
806.869	4.98151
809.762	6.37622
812.654	5.87763
815.547	3.26904
818.44	0.647461
821.333	0.663391
824.225	3.30951
827.118	0.201172
830.011	1.21423
832.903	3.15753
835.796	3.05243
838.689	1.75885
841.582	0.502441
844.474	0.266357
847.367	0.180237
850.26	7.28973
853.152	17.3787
856.045	31.8845
858.938	53.1542
861.83	88.7681
864.723	116.862
867.616	171.762
870.509	110.149
873.401	81.9337
876.294	96.1326
879.187	139.187
882.079	212.678
884.972	383.916
887.865	549.804
890.757	871.551
893.65	1671.82
896.543	3024.94
899.436	960.977
902.328	191.284
905.221	89.1562
908.114	63.9543
911.006	56.9653
913.899	67.7884
916.792	82.1995
919.684	95.7614
922.577	105.855
925.47	122.063
928.362	144.341
931.255	164.267
934.148	184.924
937.041	205.992
939.933	226.881
942.826	227.541
945.719	217.286
948.611	182.232
951.504	144.244
954.397	110.416
957.29	83.9564
960.182	63.6266
963.075	46.8738
965.968	32.6288
968.86	21.1098
971.753	11.5109
974.646	11.5549
977.538	4.87335
980.431	5.41779
983.324	0.949585
986.216	2.02429
989.109	1.71759
992.002	4.75403
994.895	3.34491
997.787	0.804993
1000.68	0.23877
1003.57	4.90503
1006.47	5.67975
1009.36	5.82465
1012.25	7.02423
1015.14	7.33301
1018.04	8.91779
1020.93	10.7499
1023.82	8.43616
1026.71	5.99463
1029.61	8.53662
1032.5	5.37061
1035.39	9.53192
1038.29	7.85644
1041.18	6.12329
1044.07	6.11774
1046.96	3.58783
1049.86	3.55896
1052.75	1.75342
1055.64	0.742981
1058.53	0.394348
1061.43	0.640686
1064.32	1.23511
1067.21	0.362915
1070.11	5.10138
1073	1.81934
1075.89	4.50879
1078.78	9.84668
1081.68	19.5706
1084.57	43.0576
1087.46	63.4196
1090.35	41.3589
1093.25	19.6986
1096.14	11.4351
1099.03	9.07996
1101.92	6.9726
1104.82	5.6463
1107.71	4.40906
1110.6	3.60309
1113.49	3.62299
1116.39	0.111328
1119.28	0.993469
1122.17	1.34839
1125.07	1.21991
1127.96	2.84302
1130.85	2.46167
1133.74	0.097961
1136.64	2.22015
1139.53	2.30756
1142.42	0.450745
1145.32	1.20093
1148.21	1.7121
1151.1	0.859314
1153.99	5.26013
1156.89	2.13544
1159.78	1.62311
1162.67	5.24231
1165.56	4.03796
1168.46	2.97998
1171.35	2.61316
1174.24	2.70349
1177.13	4.36529
1180.03	4.50024
1182.92	3.99585
1185.81	4.60181
1188.7	5.5058
1191.6	3.93201
1194.49	6.46582
1197.38	5.84515
1200.28	4.38306
1203.17	4.16058
1206.06	2.70252
1208.95	2.92071
1211.85	1.51093
1214.74	4.8053
1217.63	5.14618
1220.53	3.85553
1223.42	6.0274
1226.31	1.48224
1229.2	0.242676
1232.1	0.132568
1234.99	1.35663
1237.88	3.7096
1240.77	3.41913
1243.67	2.53369
1246.56	4.60516
1249.45	3.65924
1252.35	1.32184
1255.24	0.138977
1258.13	0.098755
1261.02	0.974182
1263.92	4.03857
1266.81	0.773254
1269.7	2.23547
1272.59	1.15448
1275.49	2.1806
1278.38	3.74365
1281.27	0.193909
1284.16	3.20575
1287.06	4.8858
1289.95	2.20337
1292.84	0.207336
1295.73	1.3844
1298.63	3.75421
1301.52	0.023315
