Measurement: Raman, 532 nm, unoriented, Raman Data Processed
Mineral: Whitmoreite
Rruff sample: R110175
Ideal chemistry: Fe^2+^Fe^3+^_2_(PO_4_)_2_(OH)_2_4H_2_O
Locality: Palermo #1 mine, North Groton, Grafton Co., New Hampshire, USA
Source: Donald Doell
Description: Radial sprays of brown prismatic crystals associated with jahnsite, childrenite, and quartz
Raman shift (cm-1)	intensity
186.433	0
189.326	0.367615
192.219	2.34799
195.112	2.01679
198.004	8.63074
200.897	16.7252
203.79	15.9201
206.682	17.1266
209.575	21.667
212.468	22.0438
215.36	26.0722
218.253	27.209
221.146	23.9337
224.038	30.4691
226.931	30.9352
229.824	34.7529
232.717	39.8876
235.609	42.7004
238.502	41.8355
241.395	51.2897
244.287	57.0668
247.18	61.0148
250.073	70.241
252.965	75.568
255.858	80.2576
258.751	83.4954
261.644	81.2852
264.536	78.9123
267.429	75.3714
270.322	73.1938
273.214	68.4277
276.107	57.5566
279	58.2117
281.892	51.101
284.785	39.1113
287.678	32.0346
290.571	23.8974
293.463	19.7883
296.356	15.8546
299.249	8.91925
302.141	2.15199
305.034	3.73865
307.927	0.23262
310.82	1.58539
313.712	0.000839
316.605	1.21324
319.498	6.73415
322.39	8.75156
325.283	9.78642
328.176	20.0407
331.068	27.2905
333.961	30.5075
336.854	28.773
339.747	35.3355
342.639	38.5671
345.532	37.9199
348.425	34.4096
351.317	34.8776
354.21	28.9521
357.103	23.5824
359.995	18.6613
362.888	19.9261
365.781	13.3175
368.673	8.85699
371.566	0.982254
374.459	1.75588
377.352	1.21675
380.244	0.806381
383.137	3.6183
386.03	2.64455
388.922	1.67972
391.815	3.47965
394.708	2.00877
397.601	8.19672
400.493	17.0622
403.386	21.9826
406.279	30.0996
409.171	36.5694
412.064	39.2864
414.957	38.8066
417.849	34.5806
420.742	31.6509
423.635	27.2623
426.527	27.4232
429.42	26.0418
432.313	17.793
435.206	15.7144
438.098	15.9445
440.991	13.8067
443.884	10.029
446.776	19.9011
449.669	25.7554
452.562	42.0348
455.454	58.7795
458.347	75.5468
461.24	104.45
464.133	126.496
467.025	151.061
469.918	181.23
472.811	211.023
475.703	231.424
478.596	254.386
481.489	270.727
484.382	276.04
487.274	267.542
490.167	251.698
493.06	224.627
495.952	197.516
498.845	160.591
501.738	130.126
504.63	103.88
507.523	75.8926
510.416	52.6882
513.308	35.6873
516.201	21.5985
519.094	8.49904
521.987	0.494904
524.879	2.29161
527.772	2.32254
530.665	0.033493
533.557	1.71307
536.45	4.16394
539.343	9.06067
542.236	19.0569
545.128	28.3371
548.021	34.0767
550.914	45.8161
553.806	46.434
556.699	49.9967
559.592	47.9687
562.484	48.8887
565.377	47.2497
568.27	51.5727
571.163	54.4538
574.055	53.6534
576.948	55.6784
579.841	50.3624
582.733	45.0366
585.626	34.8626
588.519	26.2725
591.411	20.3916
594.304	14.5131
597.197	8.39562
600.09	0.000862
602.982	0.273567
605.875	2.35435
608.768	2.0056
611.66	1.05584
614.553	1.66724
617.446	0.09845
620.338	2.78004
623.231	3.32772
626.124	6.32244
629.016	4.58955
631.909	6.77948
634.802	10.5938
637.695	8.45019
640.587	7.79824
643.48	8.49137
646.373	9.62543
649.265	11.5509
652.158	8.54082
655.051	10.4597
657.943	10.8611
660.836	9.55307
663.729	11.2721
666.622	10.8517
669.514	6.23325
672.407	9.40431
675.3	8.15123
678.192	6.94699
681.085	3.74191
683.978	5.49949
686.87	5.96423
689.763	7.40837
692.656	1.64065
695.549	1.67081
698.441	1.83968
701.334	4.47945
704.227	0.738922
707.119	1.30122
710.012	4.35214
712.905	2.0901
715.798	5.35178
718.69	1.97063
721.583	2.11557
724.476	4.95187
727.368	1.67602
730.261	2.45081
733.154	2.57129
736.046	1.67263
738.939	2.86963
741.832	1.43023
744.725	3.51763
747.617	0.758232
750.51	2.13287
753.403	1.10237
756.295	2.14292
759.188	1.33839
762.081	1.20425
764.973	1.43057
767.866	0.932228
770.759	1.41461
773.652	1.33868
776.544	0.665878
779.437	1.40445
782.33	1.65895
785.222	1.70824
788.115	3.18717
791.008	1.36501
793.9	4.58021
796.793	2.44785
799.686	3.00063
802.578	1.22376
805.471	3.12366
808.364	1.65684
811.257	1.23158
814.149	2.81567
817.042	2.04885
819.935	2.83701
822.827	6.44996
825.72	4.45627
828.613	2.89784
831.505	3.99725
834.398	4.66615
837.291	7.18887
840.184	3.46132
843.076	4.83476
845.969	5.76218
848.862	2.99297
851.754	6.11877
854.647	7.59013
857.54	4.53676
860.433	7.21787
863.325	5.63547
866.218	4.41766
869.111	5.89051
872.003	3.9691
874.896	2.46668
877.789	2.47906
880.681	0.743225
883.574	1.26664
886.467	2.368
889.36	0.705864
892.252	0.095276
895.145	1.71307
898.038	1.62666
900.93	0.375183
903.823	2.42734
906.716	0.550728
909.608	3.60229
912.501	0.997292
915.394	0.124321
918.287	0.693924
921.179	5.52983
924.072	6.72403
926.965	2.8645
929.857	5.00948
932.75	10.5834
935.643	13.159
938.535	16.912
941.428	19.9254
944.321	28.2957
947.213	36.9453
950.106	49.933
952.999	71.6504
955.892	93.3087
958.784	122.478
961.677	159.147
964.57	197.838
967.462	245.173
970.355	287.222
973.248	306.373
976.14	281.109
979.033	235.443
981.926	179.734
984.819	139.453
987.711	109.956
990.604	83.2946
993.497	63.863
996.389	46.8273
999.282	31.4308
1002.17	22.788
1005.07	17.722
1007.96	7.06576
1010.85	4.52013
1013.75	2.9769
1016.64	0.358414
1019.53	3.02016
1022.42	0.060982
1025.32	1.3417
1028.21	2.64027
1031.1	2.56526
1033.99	0.331039
1036.89	3.15075
1039.78	3.05437
1042.67	0.383575
1045.57	3.74316
1048.46	4.21846
1051.35	4.75476
1054.24	11.0181
1057.14	19.8498
1060.03	22.7067
1062.92	34.923
1065.81	47.7329
1068.71	59.5793
1071.6	76.2203
1074.49	102.014
1077.38	130.25
1080.28	166.517
1083.17	202.878
1086.06	233.296
1088.96	235.745
1091.85	220.408
1094.74	187.877
1097.63	162.437
1100.53	138.38
1103.42	116.891
1106.31	99.0224
1109.2	86.2874
1112.1	74.2169
1114.99	58.1724
1117.88	42.6518
1120.78	35.8954
1123.67	24.4021
1126.56	16.3701
1129.45	13.4335
1132.35	10.1214
1135.24	7.09428
1138.13	5.37748
1141.02	9.34515
1143.92	11.0158
1146.81	12.7003
1149.7	17.6732
1152.6	21.9484
1155.49	27.2904
1158.38	35.3901
1161.27	39.596
1164.17	46.7766
1167.06	47.105
1169.95	47.5222
1172.84	45.3107
1175.74	40.5372
1178.63	32.9349
1181.52	28.1762
1184.41	20.43
1187.31	15.8388
1190.2	7.55912
1193.09	3.80465
1195.99	2.47935
1198.88	0.37162
1201.77	0.242146
1204.66	0.618114
1207.56	1.10674
1210.45	0.217602
1213.34	0.267735
1216.23	0.175232
1219.13	1.66104
1222.02	1.33647
1224.91	0.616863
1227.81	1.53505
1230.7	0.319462
1233.59	2.06926
1236.48	3.95975
1239.38	2.25588
1242.27	2.61482
1245.16	3.74806
1248.05	1.40612
1250.95	8.5587
1253.84	9.02181
1256.73	7.27811
1259.62	8.69094
1262.52	6.41071
1265.41	5.94869
1268.3	5.94667
1271.2	4.9905
1274.09	6.35247
1276.98	4.23271
1279.87	1.40284
1282.77	3.89323
1285.66	3.28677
1288.55	8.29838
1291.44	5.51301
1294.34	2.77359
1297.23	4.40172
1300.12	1.34489
1303.02	0
