Measurement: Raman, 780 nm, unoriented, Raman Data Processed
Mineral: Whitlockite
Rruff sample: R070675
Ideal chemistry: Ca_9_Mg(PO_4_)_6_(PO_3_OH)
Locality: Palermo mine, North Groton, New Hampshire, USA
Source: Rock Currier
Description: Colorless blocky modified rhombic crystals
Measured chemistry: (Ca_8.70_Na_0.27_Sr_0.02_Mn_0.01_)_Σ=9_(Mg_0.73_Fe^3+^_0.19_Al_0.08_)_Σ=1_(P_1.00_O_3_((OH)_0.58_F_0.42_)_Σ=1_)(P_1.00_O_4_)_6_; OH estimated by charge balance
Raman shift (cm-1)	intensity
124.345	0
127.237	18.854
130.13	148.278
133.023	338.103
135.915	418.714
138.808	493.929
141.701	535.921
144.594	557.35
147.486	686.494
150.379	647.144
153.272	576.314
156.164	670.075
159.057	583.671
161.95	539.777
164.842	391.479
167.735	342.144
170.628	248.882
173.52	258.245
176.413	185.455
179.306	130.58
182.199	25.4852
185.091	48.5232
187.984	0.763306
190.877	9.64697
193.769	9.02832
196.662	4.77588
199.555	21.4573
202.447	20.3158
205.34	3.67285
208.233	44.1446
211.126	44.2231
214.018	120.369
216.911	123.228
219.804	138.476
222.696	194.752
225.589	173.02
228.482	203.266
231.375	215.463
234.267	258.875
237.16	271.166
240.053	271.63
242.945	280.197
245.838	302.986
248.731	363.768
251.623	356.435
254.516	420.206
257.409	449.066
260.301	460.947
263.194	514.44
266.087	571.143
268.98	572.079
271.872	652.398
274.765	747.937
277.658	884.44
280.55	958.594
283.443	1070.89
286.336	1104.24
289.228	1005.89
292.121	928.703
295.014	772.372
297.907	645.633
300.799	660.235
303.692	411.245
306.585	345.508
309.477	282.838
312.37	205.223
315.263	134.75
318.156	83.7052
321.048	58.877
323.941	15.5512
326.834	16.5748
329.726	34.0264
332.619	11.6558
335.512	1.42218
338.404	11.9048
341.297	7.79559
344.19	10.8538
347.082	16.6703
349.975	19.6836
352.868	11.1318
355.761	21.2125
358.653	24.5389
361.546	5.17145
364.439	32.4402
367.331	35.3103
370.224	53.7316
373.117	139.805
376.01	178.647
378.902	220.431
381.795	326.779
384.688	551.868
387.58	831.996
390.473	1219.84
393.366	1708.73
396.258	2363.69
399.151	3075.8
402.044	3853.82
404.937	4252.45
407.829	4087.91
410.722	3506.94
413.615	2886.23
416.507	2427.62
419.4	2106.75
422.293	1989.62
425.185	1933.31
428.078	2009.78
430.971	2087.29
433.863	2086.57
436.756	2046.11
439.649	1962.08
442.542	1826.94
445.434	1835.36
448.327	1690.11
451.22	1600.04
454.112	1487.2
457.005	1362.81
459.898	1202.56
462.791	1189.63
465.683	915.137
468.576	808.096
471.469	695.049
474.361	650.238
477.254	610.689
480.147	609.415
483.039	604.405
485.932	529.449
488.825	413.267
491.717	233.047
494.61	136.912
497.503	64.5452
500.396	1.81329
503.288	11.1881
506.181	16.3555
509.074	19.352
511.966	39.0507
514.859	37.0766
517.752	35.9334
520.644	26.3483
523.537	10.1819
526.43	56.1114
529.323	85.8568
532.215	172.197
535.108	279.793
538.001	408.664
540.893	556.063
543.786	751.431
546.679	893.104
549.572	923.343
552.464	900.737
555.357	850.273
558.25	856.11
561.142	844.13
564.035	716.346
566.928	612.465
569.82	462.611
572.713	328.607
575.606	244.53
578.499	221.836
581.391	206.204
584.284	258.679
587.177	347.45
590.069	432.748
592.962	477.94
595.855	502.051
598.747	570.821
601.64	641.086
604.533	695.403
607.426	726.403
610.318	724.538
613.211	813.973
616.104	933.138
618.996	1044.05
621.889	1194
624.782	1390.04
627.674	1525.34
630.567	1637.72
633.46	1501.62
636.352	1000.48
639.245	490.787
642.138	228.534
645.031	134.668
647.923	27.4349
650.816	11.1792
653.709	8.14902
656.601	0.893005
659.494	11.5633
662.387	5.32187
665.279	0.674988
668.172	19.2485
671.065	14.0607
673.958	16.238
676.85	11.0172
679.743	9.28061
682.636	13.1639
685.528	7.70718
688.421	111.156
691.314	32.5455
694.207	15.5106
697.099	39.6459
699.992	77.4462
702.885	18.05
705.777	36.3994
708.67	26.2012
711.563	45.5785
714.455	23.7992
717.348	55.8603
720.241	28.4604
723.134	28.5815
726.026	27.95
728.919	23.9119
731.812	1.30182
734.704	19.8276
737.597	13.8756
740.49	11.0153
743.382	25.0174
746.275	33.8445
749.168	9.22763
752.061	11.7094
754.953	18.4874
757.846	8.13846
760.739	33.9297
763.631	36.0706
766.524	31.4264
769.417	34.5149
772.309	8.20218
775.202	13.4416
778.095	27.0784
780.987	48.7813
783.88	38.6947
786.773	48.9825
789.666	45.6375
792.558	42.5843
795.451	24.7013
798.344	19.8986
801.236	41.515
804.129	18.837
807.022	32.6203
809.914	29.2127
812.807	29.9538
815.7	55.9446
818.593	41.3822
821.485	57.3536
824.378	50.2464
827.271	61.7396
830.163	50.5023
833.056	45.186
835.949	59.4495
838.841	65.3028
841.734	52.5839
844.627	57.6455
847.519	36.0851
850.412	69.5291
853.305	55.5311
856.198	51.2182
859.09	47.2189
861.983	28.381
864.876	31.5023
867.768	4.28207
870.661	18.7351
873.554	8.50397
876.447	36.3009
879.339	56.1451
882.232	26.3879
885.125	29.5465
888.017	47.6078
890.91	108.371
893.803	191.538
896.695	245.265
899.588	261.954
902.481	323.206
905.374	285.541
908.266	326.686
911.159	458.355
914.052	677.399
916.944	1005.81
919.837	1312.2
922.73	1362.94
925.622	1086.34
928.515	602.14
931.408	247.616
934.301	139.992
937.193	128.9
940.086	206.709
942.979	426.005
945.871	833.193
948.764	1637.16
951.657	3273.63
954.549	6110.3
957.442	10449.9
960.335	14923.7
963.227	17523.6
966.12	17721.3
969.013	15247.1
971.906	10509
974.798	5940.48
977.691	2851.28
980.584	1462.43
983.476	1032.51
986.369	1007.68
989.262	1020.35
992.154	912.277
995.047	758.451
997.94	534.283
1000.83	296.309
1003.73	166.495
1006.62	60.0051
1009.51	121.386
1012.4	151.86
1015.3	265.431
1018.19	374.038
1021.08	464.506
1023.97	554.374
1026.87	590.014
1029.76	561.337
1032.65	416.893
1035.55	301.019
1038.44	149.947
1041.33	91.5319
1044.22	7.35474
1047.12	34.9619
1050.01	70.0628
1052.9	66.3123
1055.79	36.7985
1058.69	37.0509
1061.58	92.037
1064.47	143.693
1067.37	216.639
1070.26	251.682
1073.15	332.054
1076.04	490.667
1078.94	573.589
1081.83	735.432
1084.72	860.476
1087.61	949.373
1090.51	982.147
1093.4	911.449
1096.29	789.198
1099.18	700.256
1102.08	614.375
1104.97	524.655
1107.86	438.821
1110.76	338.648
1113.65	249.301
1116.54	178.17
1119.43	109.353
1122.33	83.811
1125.22	56.3525
1128.11	34.314
1131	27.3146
1133.9	8.80322
1136.79	2.33749
1139.68	10.5769
1142.58	9.52438
1145.47	9.84793
1148.36	1.05508
1151.25	25.8493
1154.15	50.6118
1157.04	23.2993
1159.93	5.91461
1162.82	2.78653
1165.72	5.20636
1168.61	1.57706
1171.5	0.849274
1174.39	3.37711
1177.29	55.3243
1180.18	50.3304
1183.07	25.4655
1185.96	52.1016
1188.86	59.0522
1191.75	48.6849
1194.64	20.3752
1197.54	51.0132
1200.43	45.7165
1203.32	48.074
1206.21	55.7943
1209.11	58.6827
1212	58.3937
1214.89	30.3808
1217.79	41.9375
1220.68	26.5938
1223.57	45.7696
1226.46	51.2622
1229.36	50.707
1232.25	52.8743
1235.14	23.5664
1238.03	18.1477
1240.93	24.1793
1243.82	38.7938
1246.71	26.2199
1249.61	12.1992
1252.5	24.3956
1255.39	21.117
1258.28	13.4062
1261.18	0
