Measurement: Raman, 532 nm, unoriented, Raman Data Processed
Mineral: Whiteite-(CaFeMg)
Rruff sample: R060912
Ideal chemistry: CaFe^2+^Mg_2_Al_2_(PO_4_)_4_(OH)_2_8H_2_O
Locality: Yukon Territory, Canada
Source: Royal Ontario Museum
Description: Dull gray-tan crystals
Raman shift (cm-1)	intensity
139.361	0
142.254	4.41675
145.147	76.5496
148.039	38.2927
150.932	11.3174
153.825	40.3765
156.718	72.5986
159.61	121.182
162.503	214.358
165.396	143.37
168.288	129.954
171.181	108.131
174.074	125.199
176.966	210.914
179.859	275.718
182.752	487.231
185.644	525.341
188.537	427.119
191.43	361.326
194.323	240.416
197.215	73.9839
200.108	122.843
203.001	12.9409
205.893	122.754
208.786	227.577
211.679	365.785
214.571	476.239
217.464	595.371
220.357	665.707
223.25	715.79
226.142	799.434
229.035	900.132
231.928	966.648
234.82	1023.31
237.713	1091.57
240.606	1021.11
243.498	930.98
246.391	883.54
249.284	742.783
252.177	653.42
255.069	543.114
257.962	483.408
260.855	528.991
263.747	506.013
266.64	554.937
269.533	613.577
272.425	697.597
275.318	754.732
278.211	837.712
281.103	826.406
283.996	745.718
286.889	625.785
289.782	457.882
292.674	346.787
295.567	257.921
298.46	216.469
301.352	196.653
304.245	171.956
307.138	135.016
310.031	73.2627
312.923	44.3225
315.816	60.1794
318.709	15.8445
321.601	62.5212
324.494	22.2234
327.387	60.6992
330.279	144.536
333.172	174.701
336.065	277.71
338.957	333.879
341.85	435.695
344.743	435.75
347.635	437.375
350.528	451.9
353.421	453.897
356.314	492.317
359.206	450.871
362.099	372.863
364.992	336.853
367.884	240.254
370.777	238.41
373.67	138.602
376.562	73.0606
379.455	25.1599
382.348	13.1648
385.241	5.04126
388.133	35.6394
391.026	32.1919
393.919	22.9705
396.811	23.7471
399.704	76.4194
402.597	111.408
405.49	180.655
408.382	249.638
411.275	391.538
414.168	562.338
417.06	730.07
419.953	916.109
422.846	1099.49
425.738	1228.6
428.631	1326.63
431.524	1231.15
434.416	1144.39
437.309	949.125
440.202	757.58
443.094	631.249
445.987	534.463
448.88	334.799
451.773	315.657
454.665	318.209
457.558	342.932
460.451	303.212
463.343	334.838
466.236	394.367
469.129	479.308
472.022	600.168
474.914	716.362
477.807	769.841
480.7	839.642
483.592	921.868
486.485	965.131
489.378	960.525
492.27	979.768
495.163	1012.69
498.056	989.178
500.949	900.244
503.841	807.904
506.734	680.303
509.627	452.328
512.519	319.045
515.412	246.054
518.305	122.629
521.197	40.2007
524.09	1.80713
526.983	33.0225
529.875	118.102
532.768	68.4092
535.661	51.9141
538.554	151.775
541.446	322.513
544.339	561.737
547.232	773.051
550.124	1022.85
553.017	1208.92
555.91	1460.28
558.802	1702.32
561.695	1938.66
564.588	2157.85
567.481	2373.73
570.373	2634.31
573.266	2944.96
576.159	3301.5
579.051	3708.59
581.944	4201.71
584.837	4753.8
587.729	5251.55
590.622	5195.13
593.515	4657.38
596.408	3722.14
599.3	2653.84
602.193	1822.3
605.086	1233.76
607.978	930.02
610.871	634.168
613.764	542.239
616.656	478.386
619.549	416.132
622.442	440.644
625.335	413.266
628.227	402.738
631.12	365.789
634.013	347.298
636.905	184.734
639.798	156.073
642.691	104.816
645.583	85.0752
648.476	42.146
651.369	0.489746
654.261	12.8867
657.154	43.4136
660.047	8.18408
662.94	11.0278
665.832	7.89746
668.725	57.3345
671.618	53.6631
674.51	32.75
677.403	54.4126
680.296	9.73682
683.188	90.5723
686.081	81.647
688.974	73.3232
691.866	26.0908
694.759	34.0796
697.652	3.7793
700.545	18.895
703.437	28.4263
706.33	38.9819
709.223	7.64648
712.115	9.26587
715.008	26.0689
717.901	38.6321
720.793	6.69434
723.686	47.8667
726.579	83.5996
729.472	37.9868
732.364	56.0042
735.257	103.542
738.15	107.048
741.042	82.1826
743.935	91.7974
746.828	113.049
749.721	160.723
752.613	25.7441
755.506	118.222
758.399	130.561
761.291	146.219
764.184	123.272
767.077	100.647
769.969	131.417
772.862	125.107
775.755	151.579
778.648	144.34
781.54	182.019
784.433	148.611
787.326	157.738
790.218	207.091
793.111	196.008
796.004	227.985
798.896	196.698
801.789	212.962
804.682	192.236
807.574	229.087
810.467	167.621
813.36	198.478
816.253	222.44
819.145	198.542
822.038	233.737
824.931	263.339
827.823	306.626
830.716	303.598
833.609	292.938
836.501	281.823
839.394	315.871
842.287	250.458
845.179	200.62
848.072	217.79
850.965	200.813
853.858	170.488
856.75	100.986
859.643	105.216
862.536	70.2715
865.428	53.6343
868.321	50.0166
871.214	16.3648
874.106	7.02441
876.999	47.5063
879.892	15.7129
882.784	5.89356
885.677	13.7685
888.57	31.4302
891.463	62.7886
894.355	40.332
897.248	5.24023
900.141	5.74805
903.033	38.959
905.926	28.4307
908.819	122.62
911.712	156.626
914.604	243.97
917.497	309.716
920.39	367.677
923.282	437.64
926.175	594.528
929.068	658.548
931.96	809.96
934.853	1000.12
937.746	1355.72
940.639	1861.65
943.531	2598.43
946.424	3606.15
949.317	4951.1
952.209	6643.66
955.102	8660.37
957.995	10878.2
960.887	13081.4
963.78	15074
966.673	16903.5
969.566	18560.4
972.458	18947
975.351	17576.8
978.244	14538.7
981.136	11115.6
984.029	8359.17
986.922	6319.11
989.814	4944.14
992.707	3889.79
995.6	3048.36
998.492	2402.61
1001.38	1944.04
1004.28	1561.31
1007.17	1214.19
1010.06	998.599
1012.96	783.357
1015.85	696.602
1018.74	544.163
1021.63	390.095
1024.53	356.88
1027.42	224.089
1030.31	246.262
1033.2	82.5688
1036.1	31.2188
1038.99	31.8804
1041.88	68.6997
1044.78	100.413
1047.67	99.647
1050.56	55.6055
1053.45	36.4839
1056.35	284.791
1059.24	436.675
1062.13	750.375
1065.03	1008.33
1067.92	1253.84
1070.81	1489.15
1073.7	1613.46
1076.6	1733.9
1079.49	1593.7
1082.38	1487.53
1085.27	1298.74
1088.17	1059.11
1091.06	848.196
1093.95	725.43
1096.84	625.568
1099.74	507.359
1102.63	505.401
1105.52	470.296
1108.41	442.756
1111.31	326.049
1114.2	328.739
1117.09	232.569
1119.99	175.277
1122.88	58.4668
1125.77	79.6064
1128.66	29.7573
1131.56	43.0981
1134.45	83.8472
1137.34	15.6357
1140.23	3.45606
1143.13	45.3394
1146.02	17.6148
1148.91	66.1558
1151.81	131.657
1154.7	183.533
1157.59	239.466
1160.48	363.664
1163.38	301.269
1166.27	281.686
1169.16	254.55
1172.05	345.082
1174.95	329.732
1177.84	334.736
1180.73	346.937
1183.62	373.926
1186.52	245.206
1189.41	199.263
1192.3	83.0513
1195.2	45.6099
1198.09	39.1245
1200.98	11.0273
1203.87	5.35791
1206.77	97.6035
1209.66	9.69727
1212.55	5.30811
1215.44	29.7661
1218.34	6.87646
1221.23	8.67871
1224.12	4.39062
1227.02	20.1206
1229.91	17.6626
1232.8	57.9346
1235.69	84.5786
1238.59	80.7251
1241.48	55.8047
1244.37	118.316
1247.26	123.114
1250.16	187.413
1253.05	107.817
1255.94	89.7871
1258.84	92.0791
1261.73	78.9834
1264.62	80.5757
1267.51	41.9722
1270.41	80.3032
1273.3	115.254
1276.19	97.8809
1279.08	84.6733
1281.98	26.0898
1284.87	27.3389
1287.76	45.6343
1290.65	36.5449
