Measurement: Raman, 532 nm, unoriented, Raman Data Processed
Mineral: Whiteite-(CaFeMg)
Rruff sample: R130055
Ideal chemistry: CaFe^2+^Mg_2_Al_2_(PO_4_)_4_(OH)_2_8H_2_O
Locality: Tip Top mine, Custer, South Dakota, USA
Source: Thomas A. Loomis
Description: Colorless to pale yellow blocky hexagonal crystals, associated with R130054, atencioite
Raman shift (cm-1)	intensity
180	0
182.892	0.757507
185.785	1.84634
188.678	1.79171
191.57	4.34152
194.463	5.30435
197.356	3.53078
200.249	4.04719
203.141	5.07616
206.034	4.73222
208.927	6.63889
211.819	7.02824
214.712	5.78021
217.605	5.82954
220.497	6.23063
223.39	7.06503
226.283	6.62296
229.175	7.26234
232.068	5.71025
234.961	5.29663
237.854	5.86339
240.746	5.33253
243.639	5.61558
246.532	3.36275
249.424	3.54663
252.317	2.37747
255.21	4.21426
258.103	2.04072
260.995	2.76945
263.888	2.57532
266.781	4.59649
269.673	3.63543
272.566	4.67433
275.459	4.68172
278.351	6.15012
281.244	5.05108
284.137	4.27018
287.029	4.15264
289.922	2.76168
292.815	2.82867
295.708	2.16036
298.6	2.1922
301.493	0.477066
304.386	0.878571
307.278	0.643478
310.171	0.960617
313.064	1.11037
315.957	0.037659
318.849	0.795921
321.742	0.224442
324.635	0.101616
327.527	0.803604
330.42	0.07296
333.313	0.874199
336.205	1.13544
339.098	1.86022
341.991	1.79565
344.884	2.11098
347.776	1.26702
350.669	2.73026
353.562	2.16318
356.454	2.49969
359.347	2.57909
362.24	2.55006
365.132	2.54131
368.025	1.7831
370.918	1.33454
373.81	1.43679
376.703	0.452232
379.596	1.22459
382.489	0.265366
385.381	0.303093
388.274	0.468811
391.167	0.578552
394.059	0.029877
396.952	0.242805
399.845	0.862671
402.738	1.71086
405.63	0.865456
408.523	3.33053
411.416	3.04469
414.308	3.71215
417.201	4.98572
420.094	4.88144
422.986	5.97753
425.879	6.63393
428.772	8.57191
431.664	8.65343
434.557	7.60075
437.45	6.71308
440.343	5.16574
443.235	5.75068
446.128	3.87505
449.021	3.61423
451.913	3.84172
454.806	2.82829
457.699	2.62678
460.591	4.1458
463.484	4.4034
466.377	4.58199
469.27	5.83867
472.162	6.85115
475.055	6.15655
477.948	7.09025
480.84	6.9416
483.733	8.42539
486.626	6.10721
489.519	7.44475
492.411	6.53622
495.304	5.91791
498.197	5.4474
501.089	4.98886
503.982	3.77887
506.875	3.12852
509.767	2.04011
512.66	1.02967
515.553	1.3027
518.446	0.004646
521.338	0.568428
524.231	0.083199
527.124	0.083923
530.016	1.25668
532.909	0.720757
535.802	1.54337
538.694	0.495781
541.587	1.5949
544.48	1.19578
547.372	1.81328
550.265	1.75298
553.158	2.33273
556.051	3.1019
558.943	3.41635
561.836	3.99596
564.729	5.58138
567.621	5.73552
570.514	7.83288
573.407	7.13267
576.299	6.80596
579.192	6.07889
582.085	6.6049
584.978	7.53708
587.87	6.96384
590.763	7.25537
593.656	4.937
596.548	2.233
599.441	2.57705
602.334	1.93704
605.226	1.08163
608.119	1.33851
611.012	0.425064
613.905	1.26987
616.797	1.34325
619.69	2.79856
622.583	1.84418
625.475	1.25266
628.368	2.88141
631.261	1.51884
634.154	1.3077
637.046	1.26047
639.939	0.428207
642.832	0.201279
645.724	0.097069
648.617	1.31688
651.51	0.256706
654.402	0.51371
657.295	0.479897
660.188	0.857376
663.081	0.421822
665.973	0.603333
668.866	1.14482
671.759	0.352928
674.651	1.14867
677.544	0.790993
680.437	0.493942
683.329	1.21105
686.222	0.616219
689.115	1.41182
692.008	1.13626
694.9	1.611
697.793	1.06723
700.686	0.556557
703.578	0.634766
706.471	0.696671
709.364	1.15453
712.256	0.101288
715.149	0.6483
718.042	1.52377
720.934	0.751396
723.827	0.579285
726.72	0.475235
729.613	0.630653
732.505	0.428185
735.398	1.01263
738.291	0.633278
741.183	0.708488
744.076	0.973152
746.969	1.78214
749.861	0.759758
752.754	0.265587
755.647	0.628242
758.54	0.115128
761.432	1.08224
764.325	0.836205
767.218	1.73153
770.11	1.09306
773.003	0.416191
775.896	0.104332
778.788	1.61196
781.681	0.624687
784.574	0.365761
787.467	0.195335
790.359	0.900276
793.252	1.30979
796.145	1.1887
799.037	0.763977
801.93	0.359711
804.823	1.04628
807.716	1.32053
810.608	0.248085
813.501	0.862617
816.394	1.19801
819.286	2.70105
822.179	1.06045
825.072	2.12839
827.964	1.47195
830.857	1.03594
833.75	1.29134
836.643	1.22522
839.535	1.66414
842.428	1.29414
845.321	0.981033
848.213	0.499527
851.106	0.455093
853.999	1.13452
856.891	0.716492
859.784	0.198212
862.677	0.357864
865.569	0.158173
868.462	0.59729
871.355	0.411102
874.248	0.550705
877.14	0.9561
880.033	0.31308
882.926	0.486938
885.818	0.918777
888.711	1.06802
891.604	0.412064
894.496	0.466385
897.389	0.473038
900.282	0.198929
903.175	0.144165
906.067	1.11333
908.96	2.00107
911.853	0.467377
914.745	0.205978
917.638	0.29216
920.531	0.000916
923.423	0.03801
926.316	1.51269
929.209	1.35617
932.102	1.02412
934.994	0.684555
937.887	2.61638
940.78	2.29385
943.672	1.68602
946.565	4.33289
949.458	4.38811
952.351	6.80524
955.243	9.19766
958.136	14.2126
961.029	21.3547
963.921	29.206
966.814	38.6648
969.707	47.1809
972.599	52.2818
975.492	48.325
978.385	33.5015
981.278	24.1823
984.17	17.9861
987.063	13.6747
989.956	11.2805
992.848	9.01053
995.741	8.84767
998.634	5.64475
1001.53	5.03209
1004.42	5.2915
1007.31	3.50192
1010.21	4.2005
1013.1	3.96452
1015.99	0.985718
1018.88	2.00037
1021.77	2.88113
1024.67	2.24741
1027.56	2.63409
1030.45	1.85962
1033.35	0.084366
1036.24	0.562363
1039.13	0.50499
1042.02	0.880051
1044.92	0.556503
1047.81	0.596802
1050.7	1.44725
1053.6	1.14052
1056.49	1.48518
1059.38	1.92296
1062.27	2.3685
1065.17	2.61766
1068.06	1.45869
1070.95	3.09138
1073.84	4.31282
1076.74	3.88176
1079.63	4.47458
1082.52	4.74557
1085.41	4.55153
1088.31	5.48538
1091.2	5.13112
1094.09	3.53778
1096.99	3.33603
1099.88	4.23204
1102.77	4.58276
1105.66	2.30086
1108.56	2.59776
1111.45	2.60571
1114.34	1.43048
1117.23	0.74292
1120.13	1.01244
1123.02	1.91455
1125.91	1.4666
1128.81	1.04581
1131.7	0.710739
1134.59	1.23912
1137.48	0.816376
1140.38	0.372437
1143.27	0.318604
1146.16	2.38466
1149.05	0.569107
1151.95	1.61777
1154.84	1.24576
1157.73	0.972015
1160.62	1.1461
1163.52	1.59352
1166.41	2.76144
1169.3	2.81375
1172.2	3.93137
1175.09	4.61076
1177.98	6.08389
1180.87	5.34621
1183.77	3.67715
1186.66	2.87115
1189.55	0.516022
1192.44	2.14519
1195.34	0.102829
1198.23	0.607452
1201.12	1.50284
1204.02	1.29919
1206.91	0.912354
1209.8	0.701172
1212.69	1.88211
1215.59	1.14349
1218.48	0.179626
1221.37	0.518311
1224.26	2.05054
1227.16	0.901031
1230.05	0.301483
1232.94	1.89413
1235.84	0.967468
1238.73	0.165131
1241.62	1.72671
1244.51	1.92523
1247.41	2.46744
1250.3	1.84732
1253.19	1.46335
1256.08	1.21823
1258.98	2.62546
1261.87	2.56183
1264.76	2.4697
1267.65	3.46707
1270.55	2.00009
1273.44	1.66638
1276.33	2.00226
1279.23	1.73947
1282.12	3.09424
1285.01	2.85699
1287.9	1.79517
1290.8	2.24789
1293.69	3.06631
1296.58	0.625244
1299.47	0.119659
