Measurement: Raman, 785 nm, unoriented, Raman Data Processed
Mineral: Whiteite-(CaFeMg)
Rruff sample: R060912
Ideal chemistry: CaFe^2+^Mg_2_Al_2_(PO_4_)_4_(OH)_2_8H_2_O
Locality: Yukon Territory, Canada
Source: Royal Ontario Museum
Description: Dull gray-tan crystals
Raman shift (cm-1)	intensity
160.097	0
162.989	12.8197
165.882	22.1177
168.775	41.2289
171.668	47.781
174.56	33.3157
177.453	28.28
180.346	39.3758
183.238	16.8628
186.131	37.2042
189.024	34.0038
191.917	16.1415
194.809	12.8539
197.702	5.76562
200.595	47.7692
203.487	72.4327
206.38	83.861
209.273	126.038
212.165	175.769
215.058	236.695
217.951	255.465
220.844	307.382
223.736	335.941
226.629	357.617
229.522	350.216
232.414	357.195
235.307	363.252
238.2	313.198
241.092	309.414
243.985	315.705
246.878	259.877
249.77	252.278
252.663	188.304
255.556	196.788
258.449	211.507
261.341	232.525
264.234	246.909
267.127	285.693
270.019	316.76
272.912	396.908
275.805	473.143
278.697	554.365
281.59	592.629
284.483	567.743
287.376	515.51
290.268	432.455
293.161	391.477
296.054	364.472
298.946	321.248
301.839	351.587
304.732	316.488
307.625	272.282
310.517	193.694
313.41	131.645
316.303	109.156
319.195	58.5142
322.088	39.3636
324.981	29.9673
327.873	10.8591
330.766	4.99658
333.659	7.84265
336.551	24.6835
339.444	37.0926
342.337	69.9541
345.23	82.3043
348.122	111.963
351.015	173.248
353.908	200.472
356.8	209.837
359.693	222.362
362.586	196.103
365.478	188.516
368.371	144.71
371.264	122.281
374.157	89.3556
377.049	61.3055
379.942	42.0701
382.835	11.1581
385.727	29.5242
388.62	4.94263
391.513	15.9192
394.406	19.158
397.298	4.28772
400.191	17.1898
403.084	34.5219
405.976	65.1163
408.869	101.926
411.762	177.272
414.654	251.761
417.547	315.471
420.44	397.972
423.332	471.175
426.225	552.373
429.118	548.354
432.011	522.611
434.903	461.521
437.796	379.114
440.689	329.863
443.581	284.189
446.474	230.645
449.367	178.441
452.26	173.802
455.152	150.453
458.045	136.673
460.938	116.34
463.83	108.4
466.723	138.582
469.616	137.653
472.508	146.363
475.401	142.839
478.294	156.173
481.187	171.229
484.079	159.471
486.972	182.1
489.865	187.213
492.757	177.864
495.65	171.395
498.543	161.404
501.435	139.305
504.328	112.635
507.221	87.8755
510.114	88.71
513.006	32.4937
515.899	25.2235
518.792	9.45142
521.684	24.1545
524.577	21.4675
527.47	32.2032
530.362	9.01007
533.255	5.65753
536.148	31.7351
539.04	66.8084
541.933	144.873
544.826	210.666
547.719	282.937
550.611	349.371
553.504	445.782
556.397	527.348
559.289	563.634
562.182	662.572
565.075	653.939
567.967	698.975
570.86	724.91
573.753	780.159
576.646	781.452
579.538	828.563
582.431	873.802
585.324	882.764
588.216	858.336
591.109	806.933
594.002	733.56
596.895	585.6
599.787	435.558
602.68	300.636
605.573	240.278
608.465	203.671
611.358	181.856
614.251	163.342
617.144	188.816
620.036	163.201
622.929	208.349
625.822	238.777
628.714	198.1
631.607	213.851
634.5	163.176
637.392	154.97
640.285	124.21
643.178	99.1775
646.071	69.2759
648.963	59.5784
651.856	52.4197
654.749	31.5847
657.641	7.96234
660.534	29.7744
663.427	10.9572
666.319	4.66193
669.212	13.1519
672.105	2.216
674.997	12.66
677.89	7.70373
680.783	7.69995
683.676	15.6207
686.568	3.67468
689.461	13.4785
692.354	12.563
695.246	6.9436
698.139	5.81226
701.032	24.9473
703.924	28.1061
706.817	17.1075
709.71	3.29565
712.603	14.7443
715.495	29.7774
718.388	28.7679
721.281	21.8616
724.173	35.6722
727.066	26.6431
729.959	36.1323
732.851	23.5318
735.744	17.0252
738.637	17.098
741.53	38.0208
744.422	52.8342
747.315	5.98657
750.208	15.1582
753.1	44.3535
755.993	27.3777
758.886	27.5468
761.779	12.709
764.671	36.8511
767.564	4.58649
770.457	30.9468
773.349	31.5264
776.242	29.1614
779.135	32.6829
782.027	43.7179
784.92	32.3155
787.813	56.4205
790.706	42.6869
793.598	38.2933
796.491	33.3204
799.384	3.84686
802.276	24.3379
805.169	22.7616
808.062	26.8237
810.954	43.0204
813.847	60.1903
816.74	44.5073
819.633	43.741
822.525	43.9193
825.418	53.6852
828.311	41.9803
831.203	47.3987
834.096	57.44
836.989	56.5658
839.881	56.186
842.774	40.2105
845.667	20.0931
848.559	51.0856
851.452	26.856
854.345	7.35974
857.238	25.0599
860.13	20.2138
863.023	13.9347
865.916	10.9251
868.808	3.75726
871.701	7.32178
874.594	4.00659
877.486	2.50018
880.379	0.475769
883.272	19.2955
886.165	6.00098
889.057	13.0237
891.95	1.13916
894.843	8.12372
897.735	13.1473
900.628	18.4672
903.521	0.439087
906.413	28.3873
909.306	23.4208
912.199	58.273
915.092	65.3205
917.984	103.583
920.877	108.378
923.77	113.667
926.663	151.231
929.555	121.882
932.448	152.605
935.341	228.589
938.233	274.29
941.126	423.018
944.019	563.856
946.911	763.414
949.804	1058.18
952.697	1445.08
955.59	1926.27
958.482	2415.84
961.375	2834.34
964.268	3326.65
967.16	3695.87
970.053	4033.57
972.946	4014.8
975.838	3578.33
978.731	2835.95
981.624	2129.34
984.516	1508.55
987.409	1154.12
990.302	856.24
993.195	651.139
996.087	548.799
998.98	437.867
1001.87	350.525
1004.76	286.471
1007.66	240.455
1010.55	168.607
1013.44	143.778
1016.34	108.181
1019.23	82.9682
1022.12	36.2244
1025.01	18.3736
1027.91	9.17242
1030.8	20.296
1033.69	21.4232
1036.59	16.798
1039.48	9.28314
1042.37	1.33972
1045.26	18.9812
1048.16	15.1514
1051.05	32.1912
1053.94	17.723
1056.83	2.46258
1059.73	57.4116
1062.62	63.6193
1065.51	76.1606
1068.4	144.988
1071.3	195.168
1074.19	195.687
1077.08	210.651
1079.98	192.875
1082.87	202.751
1085.76	178.719
1088.65	148.353
1091.55	133.858
1094.44	135.485
1097.33	97.6367
1100.22	94.0115
1103.12	58.0823
1106.01	57.5073
1108.9	45.9285
1111.8	30.9279
1114.69	19.1172
1117.58	28.0723
1120.47	10.1899
1123.37	7.10571
1126.26	15.6912
1129.15	20.3002
1132.04	25.2286
1134.94	28.353
1137.83	35.4304
1140.72	38.9854
1143.62	35.3594
1146.51	53.0816
1149.4	68.0246
1152.29	82.5479
1155.19	94.6091
1158.08	102.792
1160.97	114.425
1163.86	91.6125
1166.76	98.9108
1169.65	74.7983
1172.54	80.2674
1175.43	79.2689
1178.33	81.1033
1181.22	62.0491
1184.11	59.6755
1187.01	56.9562
1189.9	51.5729
1192.79	37.4901
1195.68	32.3668
1198.58	19.0419
1201.47	31.5519
1204.36	4.81744
1207.25	20.0479
1210.15	19.9851
1213.04	18.4145
1215.93	47.5046
1218.83	58.1581
1221.72	21.395
1224.61	61.6061
1227.5	47.3727
1230.4	37.1167
1233.29	49.0593
1236.18	12.5223
1239.07	12.7719
1241.97	28.4795
1244.86	58.8295
1247.75	58.824
1250.64	25.8728
1253.54	32.5953
1256.43	2.87436
1259.32	10.8703
1262.22	12.4811
