Measurement: Raman, 780 nm, unoriented, Raman Data Processed
Mineral: Whiteite-(CaFeMg)
Rruff sample: R130055
Ideal chemistry: CaFe^2+^Mg_2_Al_2_(PO_4_)_4_(OH)_2_8H_2_O
Locality: Tip Top mine, Custer, South Dakota, USA
Source: Thomas A. Loomis
Description: Colorless to pale yellow blocky hexagonal crystals, associated with R130054, atencioite
Raman shift (cm-1)	intensity
101.324	0
104.699	1.48442
108.074	3.15544
111.448	1.38464
114.823	3.47762
118.198	3.10086
121.573	3.55257
124.948	3.45348
128.322	3.72254
131.697	2.3696
135.072	2.05982
138.447	1.06755
141.822	0.383812
145.197	0.232872
148.571	0.084175
151.946	1.04494
155.321	1.49941
158.696	1.72439
162.071	1.55298
165.446	2.09815
168.82	2.23685
172.195	2.91427
175.57	2.63999
178.945	4.57009
182.32	4.32884
185.694	3.67743
189.069	2.82537
192.444	2.63284
195.819	2.37093
199.194	1.29244
202.569	1.92908
205.943	2.29247
209.318	3.01753
212.693	3.0892
216.068	3.9229
219.442	4.17754
222.817	4.22758
226.192	4.93368
229.567	6.20484
232.942	6.00774
236.317	7.46108
239.691	7.61986
243.066	5.63296
246.441	4.80723
249.816	4.10239
253.191	3.6187
256.565	1.52766
259.94	2.17441
263.315	1.77654
266.69	2.70584
270.065	2.92447
273.44	2.69742
276.814	3.94937
280.189	3.84171
283.564	2.12647
286.939	2.0271
290.314	0.756348
293.688	0.440346
297.063	0.391987
300.438	0.62207
303.813	0.332432
307.188	0.062828
310.562	0.186821
313.937	0.451359
317.312	0.317947
320.687	0.188366
324.062	0.679523
327.437	0.561523
330.811	1.00881
334.186	1.43806
337.561	1.47115
340.936	3.12845
344.311	1.98844
347.685	2.75502
351.06	2.33205
354.435	2.45322
357.81	2.55158
361.185	2.0086
364.56	2.31302
367.934	1.65051
371.309	1.39109
374.684	0.206635
378.059	0.696304
381.434	0.385578
384.808	0.328289
388.183	0.463257
391.558	0.223057
394.933	0.062649
398.308	0.547836
401.683	0.117481
405.057	1.02555
408.432	0.976585
411.807	1.51973
415.182	2.73908
418.557	3.8465
421.931	3.75787
425.306	4.43725
428.681	5.90894
432.056	5.10127
435.431	5.79424
438.805	4.22962
442.18	4.38812
445.555	4.26764
448.93	3.34089
452.305	2.85743
455.68	4.255
459.054	3.63862
462.429	4.55687
465.804	4.82799
469.179	5.87115
472.554	5.69428
475.928	6.13517
479.303	7.07183
482.678	7.36076
486.053	8.05965
489.428	8.24007
492.803	7.91503
496.177	7.07739
499.552	5.58056
502.927	5.45978
506.302	4.25784
509.677	2.61132
513.051	2.28705
516.426	0.251999
519.801	0.094593
523.176	0.044739
526.551	0.248753
529.926	0.173439
533.3	0.169781
536.675	0.300282
540.05	0.635807
543.425	1.55099
546.799	1.96666
550.174	2.69925
553.549	4.04755
556.924	4.32814
560.299	5.36642
563.674	6.73843
567.048	8.62146
570.423	9.57383
573.798	9.98315
577.173	10.3862
580.548	12.14
583.923	13.6638
587.297	14.5612
590.672	13.7851
594.047	9.47089
597.422	5.95094
600.797	3.63916
604.171	2.40347
607.546	0.86536
610.921	1.5068
614.296	0.944546
617.671	0.761024
621.045	0.483765
624.42	0.154751
627.795	0.321712
631.17	0.399349
634.545	0.627251
637.919	0.056637
641.294	1.14654
644.669	0.232407
648.044	0.556087
651.419	0.123135
654.794	0.704842
658.168	0.583832
661.543	0.518314
664.918	0.166615
668.293	0.174015
671.668	0.968819
675.043	0.340042
678.417	0.207027
681.792	0.65807
685.167	0.299835
688.542	0.453892
691.917	0.329906
695.291	0.420111
698.666	0.715988
702.041	0.56708
705.416	0.169603
708.791	0.062422
712.165	0.275373
715.54	0.259142
718.915	0.777765
722.29	0.827635
725.665	0.724907
729.039	0.15654
732.414	0.155598
735.789	0.669703
739.164	0.594131
742.539	0.814211
745.914	0.476059
749.288	0.295717
752.663	0.861053
756.038	0.460554
759.413	0.290285
762.788	0.505684
766.163	0.928768
769.537	0.830427
772.912	0.43582
776.287	0.515789
779.662	0.062727
783.037	0.439444
786.411	0.881229
789.786	0.908968
793.161	0.092402
796.536	0.130968
799.911	1.04036
803.285	0.861219
806.66	1.05862
810.035	0.817713
813.41	0.546671
816.785	0.487206
820.159	0.868242
823.534	0.22978
826.909	0.05905
830.284	0.543596
833.659	0.894773
837.034	0.220888
840.408	0.392061
843.783	0.46891
847.158	0.203333
850.533	0.176575
853.908	0.218428
857.283	1.08069
860.657	0.062315
864.032	0.567205
867.407	0.923166
870.782	0.675133
874.157	0.146839
877.531	0.1049
880.906	0.292168
884.281	0.310961
887.656	0.538157
891.031	0.299019
894.405	0.418495
897.78	1.00359
901.155	0.411247
904.53	0.039795
907.905	0.361563
911.279	0.06418
914.654	0.493498
918.029	0.172451
921.404	0.454098
924.779	0.851509
928.154	0.590809
931.528	1.77983
934.903	2.18584
938.278	1.90456
941.653	2.76731
945.028	3.73336
948.403	5.52903
951.777	8.1667
955.152	12.1742
958.527	19.4131
961.902	28.7833
965.277	40.2255
968.651	53.7567
972.026	59.7252
975.401	50.1202
978.776	34.5904
982.151	22.129
985.525	14.7673
988.9	10.7387
992.275	8.71115
995.65	6.80161
999.025	5.02823
1002.4	4.74618
1005.77	3.31188
1009.15	2.80855
1012.52	1.87153
1015.9	1.00108
1019.27	0.846846
1022.65	1.51669
1026.02	0.200529
1029.4	0.201893
1032.77	0.008169
1036.15	0.343706
1039.52	0.270205
1042.9	0.17079
1046.27	0.683012
1049.65	0.151976
1053.02	1.35805
1056.4	1.06828
1059.77	1.36067
1063.15	2.86528
1066.52	2.9992
1069.9	3.98851
1073.27	4.59871
1076.64	3.78598
1080.02	3.8603
1083.39	3.88463
1086.77	3.84805
1090.14	2.85043
1093.52	2.8921
1096.89	2.82193
1100.27	2.43984
1103.64	1.38822
1107.02	1.43948
1110.39	1.53847
1113.77	0.798616
1117.14	0.992174
1120.52	0.411663
1123.89	0.481953
1127.27	0.726467
1130.64	0.589674
1134.02	0.001875
1137.39	0.612988
1140.77	0.434586
1144.14	0.618404
1147.52	0.472347
1150.89	0.023476
1154.27	0.506227
1157.64	0.195049
1161.02	1.0343
1164.39	1.67251
1167.77	2.02413
1171.14	2.47859
1174.52	2.87124
1177.89	3.03842
1181.27	2.48532
1184.64	1.48506
1188.01	1.58693
1191.39	1.22902
1194.76	0.519569
1198.14	0.044621
1201.51	0.647764
1204.89	0.058243
1208.26	0.20891
1211.64	0.94187
1215.01	0.010567
1218.39	0.358603
1221.76	0.611288
1225.14	1.15112
1228.51	0.04211
1231.89	0.036011
1235.26	0.474003
1238.64	0.88196
1242.01	0.828373
1245.39	1.4189
1248.76	1.0683
1252.14	0.18174
1255.51	0.486448
1258.88	1.14971
1262.26	0.832661
1265.63	0.57942
1269.01	0.763397
1272.38	0.263346
1275.76	0.429922
1279.13	0.074711
1282.51	0.53327
