Measurement: Raman, 532 nm, unoriented, Raman Data Processed
Mineral: Whitlockite
Rruff sample: R070675
Ideal chemistry: Ca_9_Mg(PO_4_)_6_(PO_3_OH)
Locality: Palermo mine, North Groton, New Hampshire, USA
Source: Rock Currier
Description: Colorless blocky modified rhombic crystals
Measured chemistry: (Ca_8.70_Na_0.27_Sr_0.02_Mn_0.01_)_Σ=9_(Mg_0.73_Fe^3+^_0.19_Al_0.08_)_Σ=1_(P_1.00_O_3_((OH)_0.58_F_0.42_)_Σ=1_)(P_1.00_O_4_)_6_; OH estimated by charge balance
Raman shift (cm-1)	intensity
117.717	0
121.091	117.525
124.466	328.213
127.841	529.769
131.216	789.19
134.591	1012.18
137.966	1232.47
141.34	1164.26
144.715	1024.63
148.09	981.77
151.465	893.076
154.84	837.725
158.214	645.044
161.589	549.282
164.964	374.904
168.339	246.816
171.714	214.127
175.089	157.088
178.463	71.0958
181.838	38.3297
185.213	30.9424
188.588	0.714233
191.963	34.3093
195.338	42.9426
198.712	5.57251
202.087	35.0068
205.462	34.5214
208.837	13.697
212.212	10.9038
215.586	66.3549
218.961	115.252
222.336	83.9686
225.711	123.795
229.086	184.423
232.46	186.304
235.835	210.405
239.21	273.423
242.585	281.165
245.96	361.17
249.334	384.855
252.709	449.602
256.084	547.306
259.459	630.579
262.834	689.348
266.209	753.883
269.583	877.617
272.958	952.656
276.333	1103.36
279.708	1288.31
283.083	1449.18
286.457	1496.11
289.832	1338.91
293.207	1177.5
296.582	966.45
299.957	774.883
303.332	605.225
306.706	429.689
310.081	298.089
313.456	236.137
316.831	106.492
320.206	75.0585
323.58	43.998
326.955	11.6477
330.33	10.6124
333.705	25.295
337.08	26.5902
340.455	1.5437
343.829	10.1888
347.204	19.4047
350.579	3.26819
353.954	22.89
357.329	18.1525
360.704	8.63672
364.078	32.8886
367.453	41.4603
370.828	112.775
374.203	148.274
377.577	259.684
380.952	441.667
384.327	785.514
387.702	1073.27
391.077	1604.65
394.452	2154.77
397.826	2830.27
401.201	3586.49
404.576	4122.86
407.951	3751.29
411.326	3099.67
414.7	2531.58
418.075	2338.89
421.45	2130.14
424.825	2106.82
428.2	2217.35
431.575	2279.51
434.949	2200.95
438.324	1967.05
441.699	1818.32
445.074	1693.93
448.449	1501.06
451.824	1353.89
455.198	1225.76
458.573	1019.71
461.948	939.192
465.323	739.43
468.697	625.255
472.072	564.233
475.447	445.93
478.822	441.288
482.197	393.438
485.572	322.04
488.946	181.34
492.321	115.518
495.696	3.6488
499.071	3.77991
502.446	49.6849
505.82	24.8811
509.195	45.574
512.57	40.846
515.945	26.7816
519.32	16.8311
522.695	22.0845
526.069	102.863
529.444	223.701
532.819	400.509
536.194	579.865
539.569	774.419
542.943	983.085
546.318	1199
549.693	1313.22
553.068	1102.03
556.443	970.449
559.818	905.854
563.192	868.127
566.567	746.644
569.942	601.203
573.317	434.208
576.692	310.704
580.067	347.065
583.441	392.667
586.816	542.626
590.191	657.539
593.566	708.351
596.941	788.873
600.315	885.352
603.69	1038.72
607.065	1159.48
610.44	1316.28
613.815	1561.96
617.189	1845.26
620.564	2186.71
623.939	2467.66
627.314	2808.99
630.689	3062.69
634.063	2506.96
637.438	1263.61
640.813	529.151
644.188	227.175
647.563	97.7153
650.938	28.7268
654.312	6.36255
657.687	8.89441
661.062	22.082
664.437	30.2327
667.812	45.3895
671.187	27.5121
674.561	15.8401
677.936	3.7323
681.311	6.66327
684.686	15.6156
688.061	18.2651
691.435	31.4294
694.81	14.167
698.185	28.4621
701.56	28.928
704.935	56.9163
708.309	37.324
711.684	39.0739
715.059	78.0983
718.434	42.0336
721.809	25.8218
725.183	60.4911
728.558	43.9294
731.933	36.4775
735.308	31.0329
738.683	42.0244
742.058	18.5612
745.432	49.5433
748.807	2.61017
752.182	31.3955
755.557	49.221
758.932	41.8722
762.307	32.2966
765.681	47.0574
769.056	51.0442
772.431	51.8752
775.806	63.5817
779.181	56.565
782.555	69.4981
785.93	61.8689
789.305	60.4787
792.68	72.9677
796.055	71.0593
799.429	88.2784
802.804	38.8981
806.179	24.8168
809.554	27.1622
812.929	48.3291
816.304	80.9177
819.678	97.4851
823.053	121.431
826.428	118.974
829.803	95.5393
833.178	55.5244
836.552	68.3671
839.927	81.772
843.302	86.5828
846.677	81.077
850.052	89.4299
853.427	65.2621
856.801	72.6856
860.176	44.1062
863.551	13.7225
866.926	9.32837
870.301	32.2152
873.675	71.1768
877.05	103.123
880.425	24.4025
883.8	26.2634
887.175	118.031
890.549	335.847
893.924	501.211
897.299	597.194
900.674	709.291
904.049	720.638
907.424	740.39
910.798	996.909
914.173	1461.39
917.548	2026.59
920.923	2359.18
924.298	2025.03
927.673	1147.94
931.047	492.543
934.422	238.58
937.797	342.2
941.172	726.928
944.547	1524.93
947.921	3235.93
951.296	6770.56
954.671	12835.7
958.046	21459.7
961.421	28792.9
964.795	30503.7
968.17	26997.8
971.545	18092.7
974.92	9097.88
978.295	3757.78
981.67	1946.1
985.044	1633.18
988.419	1646.96
991.794	1482.58
995.169	1152.97
998.544	704.715
1001.92	366.51
1005.29	170.116
1008.67	123.337
1012.04	188.449
1015.42	253.07
1018.79	370.725
1022.17	390.665
1025.54	458.932
1028.92	378.038
1032.29	310.572
1035.67	118.754
1039.04	63.1362
1042.42	7.66724
1045.79	55.6985
1049.17	101.498
1052.54	99.7859
1055.92	30.4678
1059.29	77.9204
1062.66	217.782
1066.04	403.718
1069.41	565.569
1072.79	850.753
1076.16	1233.39
1079.54	1732.98
1082.91	2182.64
1086.29	2486.54
1089.66	2447.17
1093.04	2319.19
1096.41	2034.43
1099.79	1790.48
1103.16	1594.3
1106.54	1297.25
1109.91	997.209
1113.29	696.13
1116.66	539.531
1120.04	408.71
1123.41	236.934
1126.79	214.519
1130.16	147.032
1133.54	96.5073
1136.91	48.1833
1140.29	78.1481
1143.66	46.6238
1147.04	45.849
1150.41	51.9298
1153.79	21.4002
1157.16	16.1158
1160.54	31.391
1163.91	3.07312
1167.28	3.63184
1170.66	4.38977
1174.03	16.989
1177.41	20.4362
1180.78	30.4608
1184.16	71.3109
1187.53	107.903
1190.91	86.771
1194.28	103.387
1197.66	85.2081
1201.03	65.7299
1204.41	95.4064
1207.78	118.693
1211.16	102.309
1214.53	148.945
1217.91	136.115
1221.28	138.716
1224.66	83.2462
1228.03	92.2203
1231.41	75.1646
1234.78	85.8191
1238.16	67.8331
1241.53	67.0482
1244.9	64.8575
1248.28	37.4125
1251.65	41.7539
1255.03	66.8334
1258.4	58.2701
1261.78	32.5739
1265.15	33.4429
1268.53	21.8651
1271.9	28.7256
1275.28	35.495
1278.65	39.0642
