Measurement: Raman, 532 nm, unoriented, Raman Data Processed
Mineral: Wickenburgite
Rruff sample: R060087
Ideal chemistry: Pb_3_CaAl_2_Si_10_O_27_4H_2_O
Locality: Potter Claim, Wickenburg, Arizona, USA
Source: University of Arizona Mineral Museum
Description: Colorless flattened tabular hexagonal prisms
Raman shift (cm-1)	intensity
123.637	0
127.012	0.24353
130.387	19.5134
133.762	38.6283
137.137	51.9543
140.511	59.4551
143.886	63.9797
147.261	66.4155
150.636	76.3018
154.011	88.078
157.386	117.452
160.76	140.343
164.135	101.156
167.51	49.2166
170.885	25.8369
174.26	12.8185
177.634	4.70325
181.009	3.08826
184.384	0.647705
187.759	4.09073
191.134	9.79236
194.508	17.1989
197.883	30.3775
201.258	46.2743
204.633	59.5049
208.008	73.3793
211.382	76.5457
214.757	62.0654
218.132	52.9216
221.507	51.2316
224.882	44.9208
228.257	43.5102
231.631	40.037
235.006	28.4752
238.381	15.4178
241.756	9.47919
245.131	5.35004
248.506	7.78781
251.88	1.77786
255.255	3.39874
258.63	3.65375
262.005	0.072327
265.38	10.8017
268.754	28.2999
272.129	46.1937
275.504	60.226
278.879	57.9892
282.254	54.49
285.628	66.6395
289.003	86.4887
292.378	77.9604
295.753	51.7765
299.128	34.6186
302.503	33.303
305.877	29.299
309.252	22.382
312.627	17.31
316.002	12.4069
319.377	16.3787
322.752	14.2936
326.126	8.92093
329.501	3.5289
332.876	2.37176
336.251	1.10452
339.625	1.37213
343	0.280884
346.375	0.40744
349.75	5.96069
353.125	4.59555
356.5	3.77896
359.874	0.703918
363.249	3.70074
366.624	9.81427
369.999	13.6015
373.374	18.4462
376.748	21.1031
380.123	21.1761
383.498	21.776
386.873	27.8798
390.248	38.0102
393.623	55.761
396.997	64.4894
400.372	49.1838
403.747	30.6236
407.122	14.835
410.497	8.28805
413.872	4.65912
417.246	4.46707
420.621	2.82324
423.996	1.20416
427.371	1.34677
430.746	0.73703
434.12	0.234619
437.495	0.185974
440.87	1.383
444.245	0.575928
447.62	1.08041
450.994	0.602112
454.369	8.17184
457.744	10.404
461.119	13.7311
464.494	20.9912
467.868	27.7076
471.243	29.9193
474.618	37.7104
477.993	36.6632
481.368	31.4088
484.743	27.1232
488.117	23.1401
491.492	21.0694
494.867	21.0018
498.242	21.1858
501.617	22.6492
504.991	28.8477
508.366	35.5662
511.741	33.0048
515.116	22.4541
518.491	12.505
521.866	2.93146
525.24	1.21814
528.615	0.874481
531.99	2.7305
535.365	0.503754
538.74	2.25388
542.115	6.95401
545.489	9.37335
548.864	15.4107
552.239	20.5011
555.614	19.5471
558.989	17.3978
562.363	10.3903
565.738	7.18677
569.113	6.70273
572.488	5.41782
575.863	6.0217
579.237	8.99213
582.612	12.4861
585.987	13.9441
589.362	13.8861
592.737	8.19522
596.111	3.24622
599.486	3.67725
602.861	5.41486
606.236	9.31592
609.611	9.24744
612.986	12.805
616.36	13.703
619.735	11.7654
623.11	5.55746
626.485	0.261688
629.86	1.41837
633.235	0.088959
636.609	1.26269
639.984	3.91403
643.359	7.64853
646.734	12.0872
650.109	19.4446
653.483	27.2536
656.858	38.4697
660.233	49.671
663.608	66.3751
666.983	84.659
670.357	93.0929
673.732	94.0337
677.107	67.3124
680.482	52.997
683.857	47.4693
687.232	53.353
690.606	64.1623
693.981	81.4468
697.356	95.2444
700.731	90.552
704.106	52.6297
707.481	23.5801
710.855	12.4632
714.23	6.47665
717.605	3.96619
720.98	1.48108
724.355	0.484283
727.729	1.83289
731.104	0.920837
734.479	0.759338
737.854	0.82605
741.229	0.94931
744.604	1.21103
747.978	2.89188
751.353	3.89447
754.728	6.57217
758.103	6.2392
761.477	5.32165
764.852	4.04462
768.227	3.83487
771.602	1.58252
774.977	3.3895
778.352	1.70978
781.726	3.81961
785.101	3.6575
788.476	4.32901
791.851	4.03662
795.226	7.53317
798.601	8.3573
801.975	6.86749
805.35	5.05121
808.725	2.68634
812.1	1.20142
815.475	0.596619
818.849	1.08832
822.224	2.38986
825.599	3.68072
828.974	1.71909
832.349	1.9079
835.723	1.87079
839.098	1.258
842.473	2.62088
845.848	4.60226
849.223	3.03561
852.597	5.01517
855.972	6.43701
859.347	4.35611
862.722	3.6405
866.097	1.63446
869.472	1.71201
872.846	0.122528
876.221	1.66879
879.596	1.08856
882.971	1.39853
886.346	1.13971
889.721	0.465851
893.095	1.00302
896.47	2.0762
899.845	4.55331
903.22	9.68448
906.595	13.0623
909.969	20.7518
913.344	29.1294
916.719	30.7488
920.094	26.5234
923.469	21.1552
926.843	22.2874
930.218	29.7453
933.593	40.0406
936.968	61.2371
940.343	82.0219
943.718	63.0595
947.092	29.5922
950.467	10.3461
953.842	3.45361
957.217	3.61783
960.592	6.50204
963.966	12.0307
967.341	19.0252
970.716	25.1809
974.091	25.0249
977.466	17.7487
980.841	13.2457
984.215	12.2697
987.59	14.0058
990.965	19.2533
994.34	27.0225
997.715	40.95
1001.09	59.9501
1004.46	88.2712
1007.84	109.241
1011.21	139.532
1014.59	150.556
1017.96	104.695
1021.34	56.5972
1024.71	30.3523
1028.09	17.0564
1031.46	12.254
1034.84	8.52588
1038.21	7.45175
1041.59	3.85834
1044.96	5.80771
1048.34	5.3266
1051.71	3.29712
1055.09	0.968964
1058.46	1.57239
1061.84	1.56314
1065.21	0.62442
1068.59	1.00726
1071.96	1.37064
1075.34	0.183167
1078.71	1.08469
1082.09	2.26071
1085.46	4.27212
1088.84	8.93848
1092.21	14.5872
1095.58	20.6684
1098.96	20.1888
1102.33	17.6855
1105.71	11.7484
1109.08	9.5947
1112.46	5.22095
1115.83	4.26724
1119.21	3.58344
1122.58	1.15591
1125.96	0.638916
1129.33	0.454102
1132.71	1.53391
1136.08	1.19247
1139.46	3.13229
1142.83	7.74564
1146.21	12.1095
1149.58	15.5466
1152.96	18.7534
1156.33	21.828
1159.71	22.9118
1163.08	17.8005
1166.45	11.2847
1169.83	7.79627
1173.2	4.16431
1176.58	3.69519
1179.95	4.32123
1183.33	2.44785
1186.7	1.55862
1190.08	1.96155
1193.45	2.5282
1196.83	2.81628
1200.2	1.77438
1203.58	1.10416
1206.95	1.84961
1210.33	2.34009
1213.7	1.22739
1217.08	1.38888
1220.45	0.631287
1223.83	2.07736
1227.2	1.04788
1230.58	0.644745
1233.95	0.201752
1237.33	0.425262
1240.7	0.302277
1244.08	1.25308
1247.45	2.42801
1250.83	2.55859
1254.2	2.65735
1257.58	1.89417
1260.95	2.41452
1264.33	2.7749
1267.7	3.50208
1271.08	1.83292
1274.45	0.588165
1277.82	2.65762
1281.2	2.34442
1284.57	1.70758
1287.95	0.124329
1291.32	0.520447
1294.7	0.995026
1298.07	0.48938
1301.45	1.78516
1304.82	1.10986
