Measurement: Raman, 532 nm, unoriented, Raman Data Processed
Mineral: Wickmanite
Rruff sample: R100017
Ideal chemistry: Mn^2+^Sn^4+^(OH)_6_
Locality: Langban, Filipstad, Varmland, Sweden
Source: William Pinch
Description: Colorless distorted octahedra
Raman shift (cm-1)	intensity
150.832	0
153.725	2.15225
156.618	2.41663
159.51	10.2592
162.403	25.5207
165.296	34.4611
168.189	46.3678
171.081	58.0884
173.974	69.1329
176.867	80.3109
179.759	90.7311
182.652	93.3972
185.545	91.3225
188.437	84.182
191.33	81.5298
194.223	81.1099
197.115	84.0432
200.008	82.665
202.901	76.4038
205.794	64.3713
208.686	50.7581
211.579	36.0917
214.472	29.0497
217.364	28.4376
220.257	21.449
223.15	22.7981
226.042	26.5365
228.935	32.2921
231.828	28.9079
234.721	31.7616
237.613	35.043
240.506	38.0918
243.399	36.5954
246.291	26.3533
249.184	19.3908
252.077	10.3182
254.97	1.27448
257.862	14.3681
260.755	19.3169
263.648	6.77734
266.54	32.7993
269.433	95.1694
272.326	198.446
275.218	335.975
278.111	500.2
281.004	712.26
283.897	1011.47
286.789	1435.65
289.682	1814.29
292.575	1771.35
295.467	1327.71
298.36	872.637
301.253	578.476
304.145	395.978
307.038	284.826
309.931	206.924
312.824	153.444
315.716	114.13
318.609	84.1442
321.502	60.7936
324.394	46.7664
327.287	42.7469
330.18	38.4044
333.072	31.7244
335.965	30.9365
338.858	33.2906
341.75	44.3982
344.643	71.1795
347.536	119.35
350.429	188.097
353.321	289.599
356.214	405.436
359.107	536.989
361.999	684.917
364.892	837.063
367.785	968.73
370.678	1034.86
373.57	984.851
376.463	829.692
379.356	645.455
382.248	475.692
385.141	352.986
388.034	254.831
390.926	172.768
393.819	116.66
396.712	73.9792
399.604	46.329
402.497	22.633
405.39	10.0947
408.283	3.88086
411.175	2.20703
414.068	0.702209
416.961	4.14807
419.853	2.27374
422.746	0.195496
425.639	1.08069
428.531	7.71094
431.424	19.9252
434.317	29.5245
437.21	40.2244
440.102	53.732
442.995	64.4541
445.888	68.2113
448.78	71.8832
451.673	74.58
454.566	65.2497
457.459	68.6201
460.351	62.1075
463.244	55.9979
466.137	53.1428
469.029	48.4222
471.922	38.0366
474.815	35.7393
477.707	22.0162
480.6	12.6967
483.493	5.99683
486.385	2.96582
489.278	6.15668
492.171	16.5777
495.064	12.8222
497.956	17.1865
500.849	6.88025
503.742	8.42291
506.634	0.188538
509.527	10.5961
512.42	21.6536
515.313	35.2793
518.205	51.1402
521.098	55.5785
523.991	55.3562
526.883	51.7066
529.776	34.4133
532.669	34.8231
535.562	37.6236
538.454	46.0621
541.347	62.4788
544.24	88.2916
547.132	116.815
550.025	148.906
552.918	177.09
555.81	220.224
558.703	268.674
561.596	331.983
564.489	424.569
567.381	576.813
570.274	788.763
573.167	1129.05
576.059	1662.27
578.952	2479.07
581.845	3576.2
584.737	4993.84
587.63	6834.81
590.523	8756.54
593.415	9781.21
596.308	8762.79
599.201	6254.2
602.093	4005.92
604.986	2565.51
607.879	1706.94
610.772	1169.84
613.664	823.975
616.557	595.664
619.45	437.297
622.342	336.975
625.235	263.958
628.128	206.579
631.02	170.154
633.913	138.263
636.806	110.811
639.699	93.9317
642.591	77.4626
645.484	64.3321
648.377	51.8353
651.269	40.8534
654.162	34.5562
657.055	25.0278
659.947	15.9923
662.84	12.8575
665.733	7.34705
668.626	4.37988
671.518	6.45337
674.411	8.79401
677.304	9.8291
680.196	10.9117
683.089	6.0957
685.982	8.34235
688.875	4.20044
691.767	2.11188
694.66	0.89978
697.553	5.03015
700.445	8.3631
703.338	10.8261
706.231	18.2493
709.123	18.2379
712.016	28.2627
714.909	32.9238
717.802	39.676
720.694	35.0487
723.587	41.2317
726.48	44.5121
729.372	44.6103
732.265	51.0893
735.158	56.7621
738.05	49.4063
740.943	46.1613
743.836	43.8356
746.729	41.2227
749.621	39.7455
752.514	38.2566
755.407	38.7672
758.299	31.3909
761.192	29.4902
764.085	30.9928
766.977	25.6363
769.87	25.0487
772.763	29.7326
775.655	26.9954
778.548	18.9101
781.441	19.3674
784.334	16.4086
787.226	20.3925
790.119	16.3832
793.012	16.1088
795.904	12.8578
798.797	12.4461
801.69	11.5326
804.582	7.63324
807.475	12.0471
810.368	5.76752
813.261	6.3161
816.153	7.36883
819.046	9.55157
821.939	8.82629
824.831	3.40027
827.724	4.59668
830.617	5.31366
833.51	8.38068
836.402	5.39478
839.295	6.61969
842.188	4.33881
845.08	4.7066
847.973	5.29596
850.866	3.77075
853.758	0.813782
856.651	2.32257
859.544	0.278137
862.437	1.17084
865.329	1.24554
868.222	0.151428
871.115	0.017578
874.007	6.09222
876.9	2.89899
879.793	3.26514
882.685	4.12909
885.578	3.05847
888.471	5.05823
891.364	4.04565
894.256	3.94733
897.149	1.24683
900.042	4.23456
902.934	2.99976
905.827	4.17248
908.72	3.78278
911.612	1.76294
914.505	1.38061
917.398	4.93262
920.29	1.99054
923.183	0.283081
926.076	0.142578
928.969	1.40106
931.861	1.00348
934.754	4.7337
937.647	0.502991
940.539	0.764893
943.432	0.705444
946.325	3.83429
949.217	3.15008
952.11	3.97058
955.003	4.06811
957.896	4.52643
960.788	4.02673
963.681	1.77588
966.574	3.51935
969.466	7.1471
972.359	4.79968
975.252	6.92792
978.144	6.15863
981.037	8.34589
983.93	5.948
986.823	10.6899
989.715	7.27362
992.608	5.90137
995.501	7.2171
998.393	3.54919
1001.29	6.1629
1004.18	3.96399
1007.07	0.19635
1009.96	0.850098
1012.86	1.41107
1015.75	1.88831
1018.64	0.867493
1021.53	0.160583
1024.43	3.09961
1027.32	0.833801
1030.21	1.16956
1033.11	2.7149
1036	3.45648
1038.89	4.6767
1041.78	7.77734
1044.68	15.7335
1047.57	18.7399
1050.46	19.1907
1053.36	19.7447
1056.25	25.2789
1059.14	28.6794
1062.03	32.2173
1064.93	30.4342
1067.82	28.8189
1070.71	34.3486
1073.6	34.5089
1076.5	41.6445
1079.39	45.6262
1082.28	50.1448
1085.17	55.8413
1088.07	56.0479
1090.96	58.9542
1093.85	60.6937
1096.74	55.8851
1099.64	46.6147
1102.53	36.8632
1105.42	31.2501
1108.32	18.9622
1111.21	18.5571
1114.1	19.3906
1116.99	19.7654
1119.89	27.4915
1122.78	36.1649
1125.67	40.1297
1128.57	47.0576
1131.46	47.4733
1134.35	49.3406
1137.24	47.9375
1140.14	45.4888
1143.03	49.2706
1145.92	51.3682
1148.81	52.3362
1151.71	48.839
1154.6	37.0726
1157.49	27.8477
1160.38	21.2812
1163.28	13.5511
1166.17	14.3496
1169.06	6.2157
1171.95	4.12836
1174.85	0.94812
1177.74	3.12573
1180.63	0.612061
1183.53	0.449951
1186.42	1.46081
1189.31	2.29559
1192.2	0.967163
1195.1	0.014343
1197.99	3.41242
1200.88	0.225891
1203.78	3.76025
1206.67	5.44452
1209.56	2.40283
1212.45	0.07959
1215.35	3.36169
1218.24	5.19226
1221.13	3.22241
1224.02	2.33881
1226.92	0.93158
1229.81	2.70905
1232.7	1.64093
1235.6	0.85614
1238.49	3.46027
1241.38	2.25385
1244.27	3.16632
1247.17	5.5025
1250.06	4.40247
1252.95	0.953796
1255.84	3.54974
1258.74	7.82752
1261.63	7.27026
1264.52	2.95825
1267.41	5.54712
1270.31	3.67517
1273.2	5.32996
1276.09	5.97833
1278.98	7.73761
1281.88	4.35834
1284.77	5.72284
1287.66	4.98694
1290.56	2.94812
1293.45	0.268188
1296.34	1.3374
1299.23	2.42474
1302.13	0
