Measurement: Raman, 780 nm, unoriented, Raman Data Processed
Mineral: Wickenburgite
Rruff sample: R060048
Ideal chemistry: Pb_3_CaAl_2_Si_10_O_27_4H_2_O
Locality: Rat Tail Claim, Wickenburg, Maricopa County, Arizona, USA
Source: University of Arizona Mineral Museum
Description: Colorless thin hexagonal prisms
Measured chemistry: (Pb_2.95_Zn_0.05_)_Σ=3_Ca_1.00_(Al_1.90_Fe^3+^_0.10_)_Σ=2_Si_10.00_O_27_·4H_2_O
Raman shift (cm-1)	intensity
104.707	0
108.081	15.2961
111.456	51.0264
114.831	83.6858
118.206	85.4893
121.581	58.366
124.955	23.7175
128.33	4.69678
131.705	6.58374
135.08	4.41748
138.455	18.0645
141.829	30.8242
145.204	45.2522
148.579	68.1223
151.954	105.801
155.329	159.054
158.703	223.02
162.078	216.999
165.453	123.31
168.828	63.323
172.203	39.3079
175.578	20.2883
178.952	13.7546
182.327	25.4155
185.702	55.4793
189.077	85.1423
192.452	107.237
195.827	140.231
199.201	174.162
202.576	215.617
205.951	255.099
209.326	225.194
212.701	143.243
216.075	89.0117
219.45	57.7395
222.825	46.8281
226.2	37.553
229.575	31.6475
232.949	23.2124
236.324	14.5063
239.699	7.68677
243.074	4.47852
246.449	0.601563
249.823	2.56226
253.198	2.81787
256.573	1.17383
259.948	9.36597
263.323	33.646
266.698	58.1182
270.072	86.9133
273.447	95.7466
276.822	84.875
280.197	70.6155
283.572	60.573
286.947	60.8235
290.321	51.8159
293.696	41.6204
297.071	28.1499
300.446	31.7866
303.82	30.2415
307.195	26.3596
310.57	17.6853
313.945	16.5674
317.32	15.385
320.695	14.8521
324.069	9.21313
327.444	5.35889
330.819	0.188232
334.194	1.66724
337.569	2.00391
340.943	0.555664
344.318	0.97229
347.693	3.13245
351.068	7.84094
354.443	5.05798
357.818	0.484497
361.192	0.40918
364.567	1.82593
367.942	0.482422
371.317	0.926514
374.692	1.67078
378.067	5.07507
381.441	4.34192
384.816	12.8546
388.191	26.9731
391.566	38.6857
394.94	46.345
398.315	34.7262
401.69	21.1682
405.065	10.5402
408.44	0.862305
411.815	2.99976
415.189	3.92139
418.564	0.146606
421.939	3.61816
425.314	10.089
428.689	17.4707
432.063	19.7273
435.438	11.4214
438.813	8.44556
442.188	5.1095
445.563	8.57861
448.938	9.4054
452.312	7.21912
455.687	15.5808
459.062	13.9714
462.437	17.7255
465.812	23.2704
469.187	28.0294
472.561	30.9822
475.936	22.8939
479.311	14.1374
482.686	9.67102
486.06	12.2284
489.435	11.522
492.81	13.2107
496.185	11.178
499.56	12.5363
502.935	13.0704
506.309	14.9371
509.684	13.6537
513.059	12.2636
516.434	9.61182
519.809	0.014038
523.183	2.20398
526.558	1.75073
529.933	0.013794
533.308	2.93262
536.683	1.32275
540.058	3.71667
543.432	10.9365
546.807	15.1965
550.182	21.6599
553.557	27.2484
556.932	24.7048
560.307	16.6047
563.681	9.7384
567.056	12.9854
570.431	17.6553
573.806	23.8464
577.181	28.1201
580.555	44.6877
583.93	59.6125
587.305	63.7351
590.68	45.6006
594.055	29.2
597.429	16.4695
600.804	17.8202
604.179	13.729
607.554	13.6277
610.929	17.3377
614.303	23.0963
617.678	22.9303
621.053	9.3822
624.428	3.94617
627.803	0.332886
631.178	0.31311
634.552	0.959351
637.927	0.638184
641.302	7.12305
644.677	3.24109
648.052	8.18164
651.427	10.5585
654.801	15.07
658.176	18.8535
661.551	27.8645
664.926	39.5812
668.301	46.8698
671.675	53.9395
675.05	51.1624
678.425	54.725
681.8	59.6986
685.175	69.994
688.549	89.153
691.924	100.817
695.299	83.6883
698.674	53.6716
702.049	29.136
705.423	15.2223
708.798	10.8976
712.173	12.0059
715.548	2.9613
718.923	0.957764
722.298	2.30969
725.672	0.259644
729.047	0.085571
732.422	0.842651
735.797	0.108154
739.172	0.343628
742.546	0.5448
745.921	0.539429
749.296	0.473755
752.671	4.13794
756.046	4.51746
759.42	1.51318
762.795	0.110718
766.17	1.52893
769.545	1.34839
772.92	0.63855
776.295	2.28809
779.669	1.85449
783.044	2.40503
786.419	3.57996
789.794	6.75781
793.169	10.2655
796.543	9.06519
799.918	11.8934
803.293	10.375
806.668	5.6394
810.043	9.07684
813.418	3.91156
816.792	5.13641
820.167	5.7486
823.542	4.03449
826.917	4.53479
830.292	5.24377
833.666	6.31598
837.041	4.59638
840.416	4.78937
843.791	4.35193
847.166	5.05383
850.54	2.72424
853.915	2.33057
857.29	0.952515
860.665	1.34015
864.04	1.88928
867.415	0.821106
870.789	1.89941
874.164	0.946411
877.539	1.23071
880.914	1.46851
884.289	0.708435
887.663	0.5849
891.038	1.84369
894.413	3.6405
897.788	9.3631
901.163	12.0198
904.538	14.9382
907.912	21.822
911.287	28.7202
914.662	34.0056
918.037	34.8725
921.412	33.4915
924.786	33.0321
928.161	29.1371
931.536	25.652
934.911	20.3735
938.286	13.4834
941.66	6.91345
945.035	0.241577
948.41	0.907349
951.785	0.939819
955.16	1.46838
958.534	7.24793
961.909	13.5797
965.284	23.7889
968.659	35.9313
972.034	38.123
975.409	33.2102
978.783	19.3114
982.158	12.5108
985.533	14.5747
988.908	18.6251
992.283	28.3522
995.658	32.6402
999.032	40.2231
1002.41	44.8058
1005.78	43.1893
1009.16	39.8654
1012.53	23.918
1015.91	16.3779
1019.28	9.81433
1022.66	3.87152
1026.03	0.454834
1029.41	1.45044
1032.78	0.830139
1036.15	0.438599
1039.53	1.74121
1042.9	3.44525
1046.28	3.29028
1049.65	1.27716
1053.03	1.88971
1056.4	1.23944
1059.78	0.747375
1063.15	0.864929
1066.53	1.07599
1069.9	0.347717
1073.28	6.46167
1076.65	12.7719
1080.03	18.1008
1083.4	29.3149
1086.78	56.5926
1090.15	14.2922
1093.53	8.35339
1096.9	8.09143
1100.28	8.02112
1103.65	5.57428
1107.03	1.66028
1110.4	1.68286
1113.78	0.600159
1117.15	1.40259
1120.53	3.35083
1123.9	0.141846
1127.28	0.293457
1130.65	0.509277
1134.03	0.367249
1137.4	1.08508
1140.78	2.15784
1144.15	2.2641
1147.52	4.72436
1150.9	5.52277
1154.27	7.74139
1157.65	5.66748
1161.02	7.32123
1164.4	3.36615
1167.77	3.23456
1171.15	0.55127
1174.52	2.15161
1177.9	2.24713
1181.27	2.63086
1184.65	3.18487
1188.02	3.59106
1191.4	2.88043
1194.77	2.54431
1198.15	3.08405
1201.52	1.45245
1204.9	2.79907
1208.27	2.41907
1211.65	4.82465
1215.02	2.50366
1218.39	0.671753
1221.77	0.273499
1225.14	0.244812
1228.52	2.23706
1231.89	2.55963
1235.27	1.51324
1238.64	3.5744
1242.02	3.91534
1245.39	4.1228
1248.77	4.94287
1252.14	3.53009
1255.52	2.14667
1258.89	3.34924
1262.27	2.08356
1265.64	3.2456
1269.02	2.40265
1272.39	3.95019
