Measurement: Raman, 780 nm, unoriented, Raman Data Processed
Mineral: Wickmanite
Rruff sample: R100017
Ideal chemistry: Mn^2+^Sn^4+^(OH)_6_
Locality: Langban, Filipstad, Varmland, Sweden
Source: William Pinch
Description: Colorless distorted octahedra
Raman shift (cm-1)	intensity
110.466	0
113.841	0.122314
117.215	2.14642
120.59	2.07519
123.965	2.06598
127.34	2.50177
130.714	1.5025
134.089	12.5567
137.464	18.1345
140.839	28.9192
144.214	34.3963
147.589	41.9733
150.963	49.0421
154.338	47.3809
157.713	46.8469
161.088	44.9775
164.463	49.2663
167.838	50.4969
171.212	51.0325
174.587	56.7095
177.962	53.8992
181.337	54.2904
184.712	46.9882
188.086	43.3169
191.461	47.5915
194.836	42.8664
198.211	34.0788
201.586	30.8417
204.96	24.8099
208.335	19.3527
211.71	9.27942
215.085	6.98968
218.46	9.44043
221.835	6.79663
225.209	7.86597
228.584	16.221
231.959	16.3663
235.334	16.7235
238.709	14.6879
242.083	8.89185
245.458	5.23816
248.833	5.56787
252.208	5.42944
255.583	8.02502
258.958	0.893433
262.332	18.0107
265.707	52.5309
269.082	130.488
272.457	252.183
275.832	363.437
279.207	464.976
282.581	569.847
285.956	669.69
289.331	741.042
292.706	664.986
296.081	461.874
299.455	292.541
302.83	182.992
306.205	132.346
309.58	80.2374
312.955	54.7657
316.329	34.4413
319.704	24.4183
323.079	19.8195
326.454	13.2864
329.829	11.8204
333.204	13.4426
336.578	22.1832
339.953	36.8201
343.328	61.4456
346.703	102.369
350.078	157.261
353.452	227.966
356.827	301.254
360.202	366.772
363.577	411.682
366.952	441.544
370.327	434.611
373.701	380.808
377.076	294.99
380.451	214.237
383.826	148.471
387.201	104.397
390.575	64.948
393.95	37.7592
397.325	23.7416
400.7	11.4106
404.075	0.515747
407.45	1.01331
410.824	0.836975
414.199	1.84821
417.574	1.84564
420.949	0.022339
424.324	3.3045
427.698	0.393494
431.073	8.60895
434.448	14.2578
437.823	19.8819
441.198	22.531
444.572	29.7281
447.947	27.5571
451.322	26.9035
454.697	26.3112
458.072	26.0236
461.447	23.1183
464.821	21.0172
468.196	20.8365
471.571	17.5652
474.946	9.24921
478.321	8.56775
481.695	1.85974
485.07	0.640259
488.445	3.1322
491.82	6.89862
495.195	4.78436
498.57	2.70807
501.944	2.96527
505.319	3.42927
508.694	5.30096
512.069	7.92212
515.444	17.0692
518.818	15.5347
522.193	15.267
525.568	11.0335
528.943	11.4952
532.318	12.4294
535.693	14.6637
539.067	21.7766
542.442	32.9
545.817	48.8241
549.192	60.9873
552.567	80.2148
555.942	105.214
559.316	144.04
562.691	198.636
566.066	287.463
569.441	433.843
572.816	678.888
576.19	1083.23
579.565	1610.51
582.94	2098.14
586.315	2554.65
589.69	2910.72
593.064	2991.37
596.439	2493.38
599.814	1667.56
603.189	1021.76
606.564	638.595
609.938	413.394
613.313	282.343
616.688	198.386
620.063	141.725
623.438	103.264
626.813	77.006
630.187	60.6602
633.562	44.0877
636.937	36.2521
640.312	26.416
643.687	19.4418
647.062	12.7527
650.436	10.6378
653.811	3.53125
657.186	6.01938
660.561	4.06656
663.936	1.43308
667.31	4.84964
670.685	3.18457
674.06	3.64056
677.435	2.93399
680.81	2.4039
684.184	0.799866
687.559	1.23706
690.934	1.39551
694.309	1.15836
697.684	0.139008
701.059	3.72781
704.433	5.68512
707.808	8.89224
711.183	10.5472
714.558	13.6332
717.933	13.7125
721.308	14.2114
724.682	16.8924
728.057	16.7207
731.432	15.4757
734.807	13.9599
738.182	12.661
741.556	13.0706
744.931	13.9307
748.306	10.6658
751.681	10.5777
755.056	7.14508
758.431	10.0683
761.805	7.38474
765.18	9.94156
768.555	11.0517
771.93	1.3298
775.305	12.7316
778.679	11.7218
782.054	5.78247
785.429	8.08261
788.804	6.72644
792.179	3.69598
795.553	4.06882
798.928	4.52212
802.303	3.65244
805.678	2.0314
809.053	4.05774
812.428	1.53589
815.802	1.88003
819.177	3.81366
822.552	3.10141
825.927	1.01553
829.302	4.59946
832.677	0.588013
836.051	1.46851
839.426	1.13538
842.801	0.322723
846.176	2.18503
849.551	2.32758
852.925	1.39468
856.3	1.0015
859.675	0.402283
863.05	0.17511
866.425	0.467285
869.799	1.48032
873.174	1.29669
876.549	1.4736
879.924	2.69763
883.299	3.74075
886.673	5.258
890.048	0.581635
893.423	3.2529
896.798	1.28293
900.173	1.72476
903.548	0.665464
906.922	3.94144
910.297	2.62964
913.672	4.6506
917.047	2.2323
920.422	2.06094
923.797	0.096954
927.171	4.98441
930.546	0.446045
933.921	2.3093
937.296	1.30106
940.671	4.64032
944.045	1.32166
947.42	0.54892
950.795	0.263611
954.17	2.57849
957.545	4.78876
960.919	3.86777
964.294	4.96634
967.669	5.46347
971.044	2.88452
974.419	3.09308
977.794	0.965607
981.168	3.17261
984.543	5.63138
987.918	2.7124
991.293	1.53021
994.668	4.1135
998.043	1.26886
1001.42	1.814
1004.79	2.30273
1008.17	0.194397
1011.54	1.27405
1014.92	0.567932
1018.29	0.175873
1021.67	0.57428
1025.04	0.328918
1028.42	0.865936
1031.79	2.73965
1035.17	1.93768
1038.54	1.79324
1041.91	3.92465
1045.29	8.47485
1048.66	5.97257
1052.04	11.3469
1055.41	10.9616
1058.79	13.1731
1062.16	13.6331
1065.54	13.2546
1068.91	14.9072
1072.29	14.0405
1075.66	15.8508
1079.04	17.7715
1082.41	20.8307
1085.79	21.6544
1089.16	22.2172
1092.54	23.138
1095.91	19.6642
1099.29	13.3799
1102.66	10.4092
1106.04	7.72928
1109.41	5.25104
1112.79	4.86671
1116.16	7.74527
1119.54	9.75009
1122.91	11.9489
1126.29	15.0934
1129.66	13.842
1133.04	13.9452
1136.41	13.9755
1139.79	14.9912
1143.16	14.3543
1146.53	13.8113
1149.91	13.693
1153.28	10.6585
1156.66	7.28362
1160.03	6.7787
1163.41	2.16768
1166.78	3.34334
1170.16	1.5435
1173.53	0.893311
1176.91	1.88678
1180.28	1.12141
1183.66	2.48367
1187.03	0.844208
1190.41	1.26924
1193.78	4.26189
1197.16	0.680023
1200.53	1.69757
1203.91	1.11231
1207.28	4.04864
1210.66	2.53372
1214.03	1.42287
1217.41	3.15141
1220.78	1.50371
1224.15	4.3723
1227.53	4.05022
1230.9	1.4944
1234.28	2.77301
1237.65	3.85361
1241.03	2.78215
1244.4	0.97345
1247.78	4.32548
1251.15	1.7565
1254.53	2.19778
1257.9	3.39518
1261.28	2.82671
1264.65	0.234909
1268.03	2.1981
1271.4	1.67882
1274.78	1.76871
1278.15	2.93439
1281.53	0.353439
1284.9	0.401688
