Measurement: Raman, 780 nm, unoriented, Raman Data Processed
Mineral: Wickenburgite
Rruff sample: R060087
Ideal chemistry: Pb_3_CaAl_2_Si_10_O_27_4H_2_O
Locality: Potter Claim, Wickenburg, Arizona, USA
Source: University of Arizona Mineral Museum
Description: Colorless flattened tabular hexagonal prisms
Raman shift (cm-1)	intensity
105.038	0
108.412	0.056496
111.787	3.00906
115.162	5.09969
118.537	4.95485
121.912	5.01502
125.287	2.37075
128.661	0.830101
132.036	1.87041
135.411	3.80312
138.786	10.4648
142.161	15.8595
145.535	18.1095
148.91	20.2219
152.285	23.0018
155.66	25.8193
159.035	26.5506
162.41	19.1936
165.784	7.19976
169.159	0.83252
172.534	1.12709
175.909	0.804611
179.284	0.588013
182.658	1.65808
186.033	4.16177
189.408	8.44864
192.783	12.4206
196.158	17.305
199.532	20.5077
202.907	23.7857
206.282	25.4395
209.657	26.0562
213.032	24.8658
216.406	22.7194
219.781	21.8356
223.156	20.9836
226.531	18.9869
229.906	16.8039
233.281	13.1143
236.655	8.66805
240.03	5.69526
243.405	4.2662
246.78	3.51104
250.155	3.3058
253.53	3.27843
256.904	4.15819
260.279	6.43335
263.654	9.20031
267.029	12.7653
270.404	17.1648
273.778	18.9026
277.153	18.3978
280.528	18.1224
283.903	17.9387
287.278	18.1097
290.652	16.1857
294.027	10.7627
297.402	7.25692
300.777	5.96935
304.152	4.46697
307.527	4.15614
310.901	2.61653
314.276	2.58402
317.651	1.87256
321.026	1.525
324.401	1.07978
327.776	0.280495
331.15	0.477905
334.525	0.344856
337.9	0.121407
341.275	0.530968
344.649	0.006584
348.024	0.279472
351.399	0.56076
354.774	0.232491
358.149	0.534611
361.524	1.46702
364.898	2.04791
368.273	2.26491
371.648	3.25211
375.023	3.92353
378.398	5.34599
381.772	6.61561
385.147	8.42601
388.522	9.86462
391.897	11.6441
395.272	11.3848
398.647	9.65985
402.021	5.5716
405.396	2.98521
408.771	1.2803
412.146	0.660095
415.521	0.535976
418.896	0.500172
422.27	0.025799
425.645	0.041664
429.02	0.033596
432.395	0.223476
435.77	0.269749
439.144	0.049015
442.519	0.368801
445.894	0.014771
449.269	1.24071
452.644	2.10989
456.019	3.03562
459.393	3.87605
462.768	4.79214
466.143	5.50323
469.518	6.61923
472.893	6.52271
476.267	6.70596
479.642	5.32124
483.017	5.15589
486.392	4.73905
489.767	4.32093
493.142	4.86351
496.516	5.51645
499.891	6.02885
503.266	6.03255
506.641	6.17895
510.015	5.29164
513.39	3.53474
516.765	1.53147
520.14	0.707123
523.515	0.000931
526.89	0.143566
530.264	0.195755
533.639	0.072971
537.014	0.58511
540.389	1.46477
543.764	1.85241
547.139	3.04522
550.513	3.12082
553.888	2.7079
557.263	2.18661
560.638	1.35263
564.013	1.23858
567.388	1.2251
570.762	1.87897
574.137	2.40107
577.512	2.78972
580.887	3.53291
584.261	3.588
587.636	2.42671
591.011	1.48074
594.386	1.17487
597.761	0.680744
601.136	0.794731
604.51	1.15366
607.885	1.98488
611.26	2.09417
614.635	2.26578
618.01	1.68816
621.385	0.888569
624.759	0.014797
628.134	0.569901
631.509	0.040188
634.884	0.493263
638.259	0.938244
641.633	2.13231
645.008	3.10749
648.383	4.72056
651.758	6.94163
655.133	9.33017
658.507	11.6577
661.882	13.7958
665.257	15.4869
668.632	15.6939
672.007	13.6195
675.381	11.6789
678.756	10.1553
682.131	10.9669
685.506	12.5966
688.881	14.2219
692.256	15.5296
695.63	15.7449
699.005	12.6479
702.38	7.432
705.755	3.53444
709.13	1.87909
712.505	0.906174
715.879	0.820625
719.254	0.429699
722.629	0.283134
726.004	0.173595
729.379	0.02951
732.753	0.117336
736.128	0.007713
739.503	0.227959
742.878	0.177364
746.253	0.370323
749.628	0.540977
753.002	0.698116
756.377	1.12052
759.752	1.41299
763.127	0.791515
766.502	0.94672
769.876	0.782478
773.251	0.892521
776.626	0.567688
780.001	0.944275
783.376	0.900822
786.75	1.22601
790.125	1.31295
793.5	1.96145
796.875	1.69395
800.25	1.52703
803.625	1.10048
806.999	1.04147
810.374	1.02844
813.749	0.812141
817.124	0.355671
820.499	0.685593
823.874	0.926598
827.248	1.16702
830.623	0.615395
833.998	1.04605
837.373	0.489113
840.748	0.879139
844.122	0.908646
847.497	1.24168
850.872	1.51827
854.247	1.02427
857.622	0.851856
860.996	1.22868
864.371	0.903976
867.746	0.331635
871.121	0.060944
874.496	0.163292
877.87	0.265408
881.245	0.127155
884.62	0.199867
887.995	0.115372
891.37	0.009892
894.745	0.225109
898.119	1.09332
901.494	1.85748
904.869	2.7151
908.244	3.28231
911.619	3.63746
914.994	4.17974
918.368	3.90526
921.743	3.74924
925.118	4.46691
928.493	6.24683
931.868	7.65226
935.242	9.49447
938.617	9.51543
941.992	6.95559
945.367	2.97543
948.742	1.17111
952.116	0.206936
955.491	0.864315
958.866	1.32805
962.241	2.12425
965.616	2.9404
968.99	3.70899
972.365	3.64947
975.74	3.32442
979.115	1.8642
982.49	2.27126
985.865	2.31981
989.239	4.03025
992.614	5.89592
995.989	7.78753
999.364	10.5444
1002.74	13.348
1006.11	15.2626
1009.49	15.6845
1012.86	14.4083
1016.24	10.8469
1019.61	6.44813
1022.99	3.24413
1026.36	1.92528
1029.74	1.15558
1033.11	0.696064
1036.49	0.176529
1039.86	1.1897
1043.24	1.18248
1046.61	0.983074
1049.99	0.24786
1053.36	0.120934
1056.74	0.001022
1060.11	0.008163
1063.48	0.013584
1066.86	0.249104
1070.23	0.443962
1073.61	0.19445
1076.98	0.370014
1080.36	0.687096
1083.73	1.26672
1087.11	1.75243
1090.48	2.52104
1093.86	2.79334
1097.23	2.36651
1100.61	2.11402
1103.98	1.8061
1107.36	1.20303
1110.73	1.19305
1114.11	0.366295
1117.48	0.16637
1120.86	0.285576
1124.23	0.347622
1127.61	0.037991
1130.98	0.194973
1134.36	0.333496
1137.73	0.754894
1141.11	1.28933
1144.48	1.83458
1147.86	2.64669
1151.23	3.10191
1154.61	2.92694
1157.98	2.73897
1161.36	1.9963
1164.73	1.51667
1168.11	0.994015
1171.48	0.902409
1174.85	0.547054
1178.23	0.840553
1181.6	0.811649
1184.98	0.500935
1188.35	0.929958
1191.73	0.52187
1195.1	0.469173
1198.48	0.279835
1201.85	0.359169
1205.23	0.481541
1208.6	0.379768
1211.98	0.391251
1215.35	0.61842
1218.73	0.34576
1222.1	0.165157
1225.48	0.207153
1228.85	0.278114
1232.23	0.007904
1235.6	0.104523
1238.98	0.092804
1242.35	0.073956
1245.72	0.129658
1249.1	0.565346
1252.47	0.422123
1255.85	0.609676
1259.22	0.474323
1262.6	0.784962
1265.97	0.745537
1269.35	0.552074
1272.72	0.710899
1276.1	0.443066
1279.47	0.377728
1282.85	0.053486
1286.22	0.175282
