Measurement: Raman, 532 nm, unoriented, Raman Data Processed
Mineral: Widenmannite
Rruff sample: R080029
Ideal chemistry: Pb_2_UO_2_(CO_3_)_3_
Locality: Pribram, Bohemia, Czechoslovakia
Source: William W. Pinch
Description: Spherical aggregates of tan to colorless acicular crystals
Raman shift (cm-1)	intensity
145.869	0
149.243	131.935
152.618	32.2637
155.993	57.0879
159.368	175.158
162.743	709.365
166.117	1554.04
169.492	2846.86
172.867	4860.24
176.242	7066.29
179.617	9902.06
182.992	13421.3
186.366	18318.7
189.741	23250.6
193.116	21743.5
196.491	18388.6
199.865	16759
203.24	14818.5
206.615	13406.5
209.99	12908.7
213.365	12433
216.74	11627.2
220.114	11513.5
223.489	11260.8
226.864	8915.19
230.239	5787.72
233.614	4455.14
236.988	4446.59
240.363	5052.84
243.738	5066.53
247.113	4618.5
250.488	3864.69
253.863	2975.31
257.237	2477.93
260.612	2404.35
263.987	2758.65
267.362	3312.74
270.737	2244.41
274.111	1450.59
277.486	1001.26
280.861	299.709
284.236	65.8672
287.611	173.367
290.986	201.662
294.36	201.812
297.735	156.357
301.11	56.5781
304.485	332.592
307.86	450.193
311.235	746.021
314.609	1069.8
317.984	1506.64
321.359	2086.31
324.734	2778.34
328.109	3738.31
331.483	4900.49
334.858	6234.34
338.233	7809.48
341.608	9265.39
344.983	10402.8
348.358	11067.6
351.732	10784.2
355.107	9149.27
358.482	6825.87
361.857	4725.92
365.232	3171.48
368.606	2215.28
371.981	1501.71
375.356	1065.05
378.731	816.578
382.106	697.564
385.481	596.463
388.855	348.877
392.23	330.768
395.605	146.668
398.98	138.367
402.355	130.953
405.729	86.0449
409.104	45.1465
412.479	0.943359
415.854	70.9629
419.229	58.7402
422.603	92.3926
425.978	38.9609
429.353	25.1914
432.728	53.4141
436.103	49.2871
439.478	26.6934
442.852	6.03516
446.227	1.51172
449.602	28.0117
452.977	66.4981
456.352	137.863
459.726	86.4199
463.101	38.4023
466.476	117.014
469.851	48.9336
473.226	134.602
476.601	125.596
479.975	182.51
483.35	146.035
486.725	93.4336
490.1	135.535
493.475	35.748
496.849	138.82
500.224	108.699
503.599	107.885
506.974	72.4883
510.349	22.6699
513.723	76.8769
517.098	143.137
520.473	163.072
523.848	94.8223
527.223	111.348
530.598	135.481
533.972	117.121
537.347	105.719
540.722	62.9414
544.097	122.83
547.472	88.2891
550.846	132.006
554.221	100.865
557.596	98.4375
560.971	81.6035
564.346	107.166
567.721	18.7422
571.095	42.248
574.47	80.3164
577.845	92.707
581.22	132.887
584.595	82.207
587.97	52.8613
591.344	64.1543
594.719	138.611
598.094	167.803
601.469	199.414
604.844	128.943
608.218	145.127
611.593	131.334
614.968	119.535
618.343	124.711
621.718	86.4883
625.092	59.5957
628.467	98.8457
631.842	104.103
635.217	73.5469
638.592	98.2324
641.967	10.5645
645.341	26.0176
648.716	8.61914
652.091	56.4922
655.466	4.80469
658.841	155.986
662.216	240.898
665.59	219.445
668.965	49.8594
672.34	80.5898
675.715	54.0312
679.09	61.4629
682.464	47.8926
685.839	74.9004
689.214	21.5234
692.589	131.695
695.964	183.223
699.338	313.143
702.713	460.352
706.088	581.553
709.463	746.879
712.838	1466.9
716.212	1946.88
719.587	2855.52
722.962	5527.04
726.337	8658.43
729.712	3222.07
733.087	1875.62
736.461	1776.18
739.836	969.041
743.211	495.672
746.586	311.365
749.961	152.652
753.336	78.0312
756.71	21.2383
760.085	35.7188
763.46	6.11328
766.835	40.9102
770.21	50.1035
773.584	30.0645
776.959	19.4199
780.334	18.5156
783.709	48.2969
787.084	120.082
790.458	111.629
793.833	210.162
797.208	117.502
800.583	90.8672
803.958	247.785
807.333	331.627
810.707	423.83
814.082	551.301
817.457	725.162
820.832	786.811
824.207	1103.22
827.582	1540.93
830.956	2447.56
834.331	5262.99
837.706	14904
841.081	23678.3
844.456	42258.1
847.83	71135.5
851.205	67904.3
854.58	12735.1
857.955	4783.73
861.33	2077.06
864.705	1107.03
868.079	766.047
871.454	479.451
874.829	278.459
878.204	185.215
881.579	128.557
884.953	179.935
888.328	101.156
891.703	128.842
895.078	43.7988
898.453	7.91211
901.827	28.3477
905.202	10.7461
908.577	21.2832
911.952	58.0391
915.327	4.93164
918.702	44.7168
922.076	26.127
925.451	18.6738
928.826	87.543
932.201	124.453
935.576	59.1816
938.95	57.9219
942.325	57.5645
945.7	27.834
949.075	43.1738
952.45	5.13672
955.824	74.6719
959.199	85.666
962.574	4.43555
965.949	13.9141
969.324	86.3769
972.699	104.246
976.073	95.1445
979.448	105.062
982.823	148.971
986.198	118.82
989.573	141.129
992.947	104.414
996.322	112.119
999.697	0.662109
1003.07	28.5801
1006.45	49.1953
1009.82	31.0254
1013.2	104.193
1016.57	138.947
1019.95	50.4121
1023.32	33.5723
1026.7	17.1816
1030.07	82.5352
1033.44	76.6621
1036.82	222.82
1040.19	151.336
1043.57	246.947
1046.94	444.719
1050.32	868.582
1053.69	1643.12
1057.07	3956.05
1060.44	4438.69
1063.82	5035.87
1067.19	10413.8
1070.57	9338.78
1073.94	2964.99
1077.32	975.426
1080.69	327.262
1084.07	164.438
1087.44	109.647
1090.82	82.9316
1094.19	61.6172
1097.57	59.8809
1100.94	97.5527
1104.32	59.8711
1107.69	42.6172
1111.07	21.9844
1114.44	57.9707
1117.82	46.2617
1121.19	71.7031
1124.57	59.1152
1127.94	24.8496
1131.32	40.3223
1134.69	122.113
1138.07	83.7578
1141.44	81.6152
1144.81	83.9805
1148.19	57.3984
1151.56	10.3672
1154.94	14.7598
1158.31	26.3652
1161.69	88.7012
1165.06	89.2188
1168.44	129.693
1171.81	79.2051
1175.19	60.4766
1178.56	115.758
1181.94	4.26953
1185.31	22.0645
1188.69	121.672
1192.06	111.766
1195.44	83.2949
1198.81	25.207
1202.19	44.7949
1205.56	49.082
1208.94	52.9375
1212.31	88.9356
1215.68	117.225
1219.06	78.0312
1222.43	34.791
1225.81	37.7754
1229.18	58.7578
1232.56	108.424
1235.93	49.8867
1239.31	2.58594
1242.68	17.3691
1246.06	43.3652
1249.43	87.2695
1252.81	134.658
1256.18	33.8379
1259.56	45.8633
1262.93	76.4356
1266.31	73.5078
1269.68	26.8594
1273.06	71.2656
1276.43	61.8691
1279.81	83.2519
1283.18	95.1992
1286.56	98.5879
1289.93	103.443
1293.31	66.5176
1296.68	46.0879
1300.06	105.252
1303.43	44.3945
