Measurement: Raman, 780 nm, unoriented, Raman Data Processed
Mineral: Widenmannite
Rruff sample: R080029
Ideal chemistry: Pb_2_UO_2_(CO_3_)_3_
Locality: Pribram, Bohemia, Czechoslovakia
Source: William W. Pinch
Description: Spherical aggregates of tan to colorless acicular crystals
Raman shift (cm-1)	intensity
92.5234	0
95.8983	532.79
99.2731	1024.45
102.648	1693.86
106.023	2631.07
109.397	3451.64
112.772	2920.88
116.147	1629.19
119.522	1008.93
122.897	826.211
126.272	874.846
129.646	510.254
133.021	97.1188
136.396	36.956
139.771	81.0173
143.146	88.0532
146.52	79.8237
149.895	18.1324
153.27	96.2553
156.645	258.231
160.02	458.749
163.395	725.409
166.769	1056.24
170.144	1525.43
173.519	2067.61
176.894	2657.2
180.269	3446.76
183.643	4371.29
187.018	5559.91
190.393	6484.56
193.768	5863.34
197.143	5044.7
200.518	4580.99
203.892	4126.84
207.267	3815.7
210.642	3698.97
214.017	3559.86
217.392	3450.94
220.766	3450.15
224.141	3304.47
227.516	2501.78
230.891	1701.18
234.266	1344.33
237.641	1334.5
241.015	1419.75
244.39	1351.84
247.765	1227.5
251.14	1004.27
254.515	773.247
257.889	634.913
261.264	640.298
264.639	707.201
268.014	791.058
271.389	474.462
274.764	275.954
278.138	158.251
281.513	44.8128
284.888	8.96405
288.263	47.5013
291.638	57.0673
295.012	49.9894
298.387	29.9869
301.762	3.81989
305.137	49.2952
308.512	90.2912
311.887	165.736
315.261	236.816
318.636	343.599
322.011	480.484
325.386	647.173
328.761	848.177
332.135	1084.29
335.51	1367.15
338.885	1654.16
342.26	1928.48
345.635	2132.77
349.01	2226.39
352.384	2093.42
355.759	1739.8
359.134	1285.49
362.509	886.674
365.884	591.417
369.258	413.943
372.633	287.792
376.008	200.14
379.383	141.663
382.758	108.127
386.132	74.4144
389.507	45.3713
392.882	32.4793
396.257	15.3131
399.632	12.6718
403.007	7.65274
406.381	6.87347
409.756	0.320343
413.131	2.4155
416.506	1.56348
419.881	0.597107
423.255	9.4718
426.63	8.17093
430.005	4.2558
433.38	6.29956
436.755	4.40192
440.13	3.86935
443.504	11.0515
446.879	4.93579
450.254	8.87329
453.629	18.8214
457.004	17.6695
460.378	28.8948
463.753	22.3266
467.128	25.6656
470.503	28.0535
473.878	28.9113
477.252	38.6066
480.627	37.8239
484.002	28.6739
487.377	21.9096
490.752	19.8793
494.127	26.1137
497.501	30.8403
500.876	20.2145
504.251	26.3833
507.626	22.6875
511.001	15.2484
514.375	21.0962
517.75	27.3952
521.125	17.3207
524.5	18.8903
527.875	26.1707
531.25	13.8723
534.624	13.9595
537.999	7.63905
541.374	16.5449
544.749	10.8442
548.124	4.48753
551.499	12.1317
554.873	12.7557
558.248	2.39269
561.623	13.5956
564.998	1.05818
568.373	4.58322
571.747	1.76468
575.122	7.78693
578.497	0.243591
581.872	4.68964
585.247	2.09613
588.621	3.23181
591.996	9.52446
595.371	5.68608
598.746	19.1314
602.121	9.46202
605.495	2.8817
608.87	12.7468
612.245	12.1928
615.62	3.64734
618.995	13.1303
622.37	1.53368
625.744	5.96207
629.119	15.9974
632.494	12.045
635.869	19.0902
639.244	4.96849
642.619	12.5553
645.993	11.711
649.368	21.249
652.743	18.1138
656.118	22.0442
659.493	12.3024
662.867	7.75438
666.242	17.3748
669.617	7.86949
672.992	1.72975
676.367	8.95378
679.741	7.30066
683.116	13.7128
686.491	9.97971
689.866	24.3738
693.241	27.0035
696.615	45.8465
699.99	56.4706
703.365	73.3229
706.74	99.2466
710.115	176.181
713.49	312.109
716.864	347.523
720.239	527.99
723.614	1016.48
726.989	1602.44
730.364	472.981
733.739	318.011
737.113	284.444
740.488	167.321
743.863	74.3932
747.238	38.9873
750.613	36.9519
753.987	17.7364
757.362	4.54941
760.737	2.68542
764.112	5.89076
767.487	4.75159
770.861	6.38673
774.236	1.78888
777.611	0.486145
780.986	1.49182
784.361	0.47998
787.736	15.6417
791.11	7.87987
794.485	18.3781
797.86	20.783
801.235	28.5823
804.61	30.2109
807.985	33.5611
811.359	54.2386
814.734	82.2456
818.109	91.2095
821.484	110.018
824.859	159.373
828.233	247.005
831.608	462.403
834.983	1108.38
838.358	2258.14
841.733	3351.62
845.107	5696.97
848.482	10335.2
851.857	7190.61
855.232	1427.18
858.607	568.273
861.982	255.101
865.356	127.167
868.731	92.1179
872.106	54.8907
875.481	44.8792
878.856	32.3274
882.231	21.7855
885.605	25.6382
888.98	13.2486
892.355	8.7206
895.73	10.2702
899.105	3.71971
902.479	4.96396
905.854	3.68649
909.229	3.65025
912.604	0.934052
915.979	3.50005
919.353	3.59285
922.728	5.02168
926.103	3.54848
929.478	1.00333
932.853	9.58841
936.227	7.82872
939.602	8.57869
942.977	12.5895
946.352	13.013
949.727	1.29333
953.102	12.2215
956.476	1.45834
959.851	4.95328
963.226	2.54082
966.601	3.61549
969.976	1.8298
973.351	7.70428
976.725	20.7419
980.1	9.34592
983.475	4.91171
986.85	0.010178
990.225	1.79744
993.599	17.081
996.974	0.341095
1000.35	8.51756
1003.72	5.07222
1007.1	5.81007
1010.47	10.7674
1013.85	11.705
1017.22	1.38437
1020.6	2.99605
1023.97	0.867065
1027.35	1.951
1030.72	11.0899
1034.1	7.8049
1037.47	15.5416
1040.85	35.9606
1044.22	57.7336
1047.6	111.526
1050.97	175.082
1054.35	367.804
1057.72	818.802
1061.1	672.197
1064.47	881.177
1067.85	1817.41
1071.22	1163.24
1074.6	401.227
1077.97	113.649
1081.35	40.5282
1084.72	34.1827
1088.09	18.4751
1091.47	17.082
1094.84	12.121
1098.22	0.522797
1101.59	9.01341
1104.97	5.69887
1108.34	14.4025
1111.72	13.795
1115.09	8.05269
1118.47	5.03017
1121.84	10.262
1125.22	5.42625
1128.59	0.038177
1131.97	3.68634
1135.34	1.27168
1138.72	7.40628
1142.09	1.82693
1145.47	12.6904
1148.84	4.64108
1152.22	11.2345
1155.59	3.35385
1158.96	14.3947
1162.34	6.89676
1165.71	11.191
1169.09	6.1089
1172.46	13.0081
1175.84	6.94545
1179.21	10.2501
1182.59	9.47076
1185.96	11.997
1189.34	3.68317
1192.71	10.7819
1196.09	6.94525
1199.46	4.07397
1202.84	12.6732
1206.21	5.62251
1209.59	8.79327
1212.96	4.59528
1216.34	11.4683
1219.71	12.6323
1223.09	14.1565
1226.46	2.50736
1229.84	16.929
1233.21	11.1173
1236.59	17.9245
1239.96	6.17026
1243.34	4.44537
1246.71	15.0364
1250.09	19.7951
1253.46	8.60954
1256.84	14.3379
1260.21	18.0732
1263.59	14.8978
1266.96	1.29391
1270.33	1.50932
1273.71	11.5354
1277.08	2.1552
1280.46	3.20984
1283.83	5.45581
