Measurement: Raman, 532 nm, unoriented, Raman Data Processed
Mineral: Wightmanite
Rruff sample: R060843
Ideal chemistry: Mg_5_O(BO_3_)(OH)_5_2H_2_O
Locality: Crestmore, California, USA
Source: Bob Jenkins
Description: Pale tan colored transparent pseudohexagonal crystals
Raman shift (cm-1)	intensity
151.414	0
154.307	39.3374
157.2	17.3081
160.092	53.9741
162.985	74.1992
165.878	97.0703
168.77	42.5117
171.663	56.0625
174.556	35.8452
177.448	135.949
180.341	90.0938
183.234	107.951
186.127	142.505
189.019	92.0073
191.912	193.332
194.805	140.943
197.697	176.794
200.59	201.34
203.483	281.616
206.375	270.468
209.268	265.483
212.161	314.444
215.054	368.293
217.946	460.368
220.839	472.567
223.732	441.631
226.624	309.393
229.517	201.574
232.41	83.9673
235.303	3.86182
238.195	0.644043
241.088	9.05225
243.981	9.5376
246.873	76.7744
249.766	2.56787
252.659	60.2515
255.551	2.80322
258.444	57.3442
261.337	67.7661
264.229	147.039
267.122	141.919
270.015	210.466
272.908	314.135
275.8	413.767
278.693	538.313
281.586	692.759
284.478	778.518
287.371	758.21
290.264	836.21
293.156	855.144
296.049	1013.45
298.942	1205.89
301.834	1417.72
304.727	1655.43
307.62	1779.14
310.513	1600.17
313.405	1104.01
316.298	607.929
319.191	287.133
322.083	217.847
324.976	100.565
327.869	20.2866
330.762	35.8374
333.654	59.7856
336.547	39.0034
339.44	64.7305
342.332	18.0234
345.225	117.579
348.118	194.639
351.01	291.712
353.903	313.54
356.796	334.817
359.688	341.643
362.581	362.712
365.474	351.709
368.366	420.713
371.259	406.174
374.152	455.649
377.045	475.807
379.937	595.34
382.83	782.023
385.723	1104.85
388.615	1496.95
391.508	2117.16
394.401	3100.92
397.293	4492.64
400.186	6196.37
403.079	7433.72
405.972	7290.45
408.864	5374.59
411.757	3565.76
414.65	2290.52
417.542	1700.79
420.435	1122.92
423.328	960.972
426.221	712.193
429.113	515.738
432.006	379.121
434.899	343.861
437.791	248.178
440.684	200.415
443.577	193.01
446.469	162.186
449.362	99.6611
452.255	110.274
455.147	115.884
458.04	192.005
460.933	197.721
463.826	186.929
466.718	285.214
469.611	317.41
472.504	368.815
475.396	375.83
478.289	295.981
481.182	305.65
484.074	363.454
486.967	254.576
489.86	211.426
492.752	96.1406
495.645	27.5405
498.538	77.0996
501.431	90.0029
504.323	60.7192
507.216	21.7192
510.109	3.46387
513.001	18.0767
515.894	22.854
518.787	54.9448
521.679	15.251
524.572	22.5034
527.465	57.1719
530.358	76.1187
533.25	179.985
536.143	192.577
539.036	329.734
541.928	449.063
544.821	650.096
547.714	740.554
550.606	800.227
553.499	775.547
556.392	802.013
559.284	732.049
562.177	656.804
565.07	581.211
567.963	562.447
570.855	524.161
573.748	464.566
576.641	353.078
579.533	244.297
582.426	296.599
585.319	307.233
588.212	312.661
591.104	323.357
593.997	384.32
596.89	462.47
599.782	473.697
602.675	454.629
605.568	401.315
608.46	346.466
611.353	340.437
614.246	307.522
617.139	423
620.031	498.287
622.924	561.474
625.817	632.679
628.709	615.914
631.602	587.014
634.495	618.733
637.387	746.229
640.28	857.335
643.173	987.604
646.066	1284.76
648.958	1514.22
651.851	1956.61
654.744	2520.28
657.636	2919.56
660.529	3211.95
663.422	3013.13
666.314	2416.19
669.207	1854.87
672.1	1213.14
674.992	697.942
677.885	364.22
680.778	61.873
683.67	68.1851
686.563	106.775
689.456	161.302
692.349	146.579
695.241	5.1543
698.134	170.34
701.027	308.547
703.919	425.002
706.812	492.873
709.705	585.793
712.597	578.229
715.49	569.712
718.383	511.826
721.276	310.638
724.168	267.272
727.061	202.114
729.954	161.149
732.846	158.291
735.739	332.325
738.632	489.483
741.524	600.025
744.417	872.278
747.31	1209.29
750.203	1478.33
753.095	1803.52
755.988	2425.99
758.881	2764.81
761.773	2733.81
764.666	2525.07
767.559	2154.99
770.452	1766.65
773.344	1492.17
776.237	1414.38
779.13	1386.2
782.022	1324.82
784.915	1199.35
787.808	1189.13
790.7	1083.96
793.593	1080.42
796.486	963.875
799.378	904.298
802.271	928.652
805.164	972.686
808.057	1098.69
810.949	1162.06
813.842	1127.98
816.735	721.678
819.627	432.699
822.52	303.275
825.413	265.923
828.305	217.042
831.198	171.94
834.091	131.482
836.984	148.782
839.876	118.016
842.769	64.2871
845.662	6.29004
848.554	17.1226
851.447	9.53076
854.34	41.5327
857.232	26.3623
860.125	51.0986
863.018	51.3794
865.91	10.0435
868.803	4.5415
871.696	45.419
874.589	0.171875
877.481	1.66162
880.374	55.3701
883.267	42.3105
886.159	42.2788
889.052	93.3955
891.945	139.474
894.837	97.1377
897.73	141.985
900.623	107.522
903.516	51.0542
906.408	91.4819
909.301	119.897
912.194	112.168
915.086	113.657
917.979	147.685
920.872	133.464
923.764	173.496
926.657	192.508
929.55	205.25
932.442	118.847
935.335	105.783
938.228	162.165
941.121	150.498
944.013	116.178
946.906	117.981
949.799	112.228
952.691	211.435
955.584	161.008
958.477	249.68
961.37	232.586
964.262	249.243
967.155	277.017
970.048	208.407
972.94	156.115
975.833	215.117
978.726	204.208
981.618	233.273
984.511	302.631
987.404	235.19
990.296	282.64
993.189	204.761
996.082	181.533
998.975	177.592
1001.87	126.049
1004.76	2.47022
1007.65	26.2842
1010.54	51.813
1013.44	74.1411
1016.33	24.6763
1019.22	9.53076
1022.12	28.7485
1025.01	56.1572
1027.9	47.894
1030.79	38.0532
1033.69	84.4644
1036.58	84.5371
1039.47	187.356
1042.37	177.254
1045.26	159.247
1048.15	170.523
1051.04	252.318
1053.94	295.495
1056.83	308.517
1059.72	425.851
1062.61	368.368
1065.51	448.681
1068.4	557.77
1071.29	492.577
1074.18	502.083
1077.08	587.232
1079.97	678.11
1082.86	943.526
1085.76	1364.28
1088.65	1361.52
1091.54	944.689
1094.43	882.237
1097.33	826.845
1100.22	815.127
1103.11	761.069
1106	846.915
1108.9	762.273
1111.79	648.236
1114.68	637.614
1117.58	626.313
1120.47	431.751
1123.36	418.603
1126.25	499.835
1129.15	384.529
1132.04	331.324
1134.93	296.038
1137.82	136.158
1140.72	190.367
1143.61	116.171
1146.5	134.795
1149.39	95.6348
1152.29	144.195
1155.18	65.189
1158.07	75.3003
1160.97	103.822
1163.86	1.0459
1166.75	20.0781
1169.64	5.74805
1172.54	64.0776
1175.43	72.4375
1178.32	131.965
1181.21	109.025
1184.11	107.531
1187	57.6982
1189.89	50.5576
1192.79	7.90283
1195.68	7.62695
1198.57	4.60596
1201.46	5.00293
1204.36	46.5117
1207.25	48.8794
1210.14	5.96875
1213.03	23.9629
1215.93	3.29932
1218.82	70.5239
1221.71	67.7285
1224.61	9.92236
1227.5	33.0366
1230.39	68.0459
1233.28	73.3906
1236.18	168.228
1239.07	160.776
1241.96	65.9629
1244.85	245.072
1247.75	198.567
1250.64	190.867
1253.53	102.851
1256.42	131.39
1259.32	53.6728
1262.21	85.8115
1265.1	37.0947
1267.99	36.3862
1270.89	182.067
1273.78	48.3115
1276.67	83.749
1279.57	61.6636
1282.46	69.4487
1285.35	66.7788
1288.24	24.9697
1291.14	0.211914
