Measurement: Raman, 785 nm, unoriented, Raman Data Processed
Mineral: Wightmanite
Rruff sample: R060843
Ideal chemistry: Mg_5_O(BO_3_)(OH)_5_2H_2_O
Locality: Crestmore, California, USA
Source: Bob Jenkins
Description: Pale tan colored transparent pseudohexagonal crystals
Raman shift (cm-1)	intensity
182.274	0
185.167	28.6924
188.06	42.3071
190.952	25.2422
193.845	16.9026
196.738	61.1274
199.63	50.6179
202.523	16.9929
205.416	12.6494
208.308	46.9839
211.201	44.6233
214.094	42.8667
216.987	89.1587
219.879	93.3711
222.772	90.6086
225.665	83.2583
228.557	69.9688
231.45	46.2793
234.343	36.7053
237.235	18.5837
240.128	53.3376
243.021	36.5698
245.913	22.1233
248.806	17.9385
251.699	2.19507
254.592	32.2041
257.484	17.5183
260.377	15.4683
263.27	1.54981
266.162	14.6567
269.055	25.9331
271.948	11.8811
274.841	0.136963
277.733	2.81152
280.626	47.8835
283.519	90.2192
286.411	88.2466
289.304	43.5037
292.197	124.438
295.089	164.445
297.982	180.474
300.875	244.736
303.767	361.498
306.66	419.546
309.553	433.883
312.446	265.408
315.338	191.268
318.231	119.213
321.124	62.9158
324.016	76.3901
326.909	112.029
329.802	91.625
332.695	98.1572
335.587	63.1448
338.48	78.2602
341.373	95.0933
344.265	131.693
347.158	130.249
350.051	196.818
352.943	179.158
355.836	187.902
358.729	216.173
361.622	180.684
364.514	203.768
367.407	207.097
370.3	161.233
373.192	211.688
376.085	185.06
378.978	206.681
381.87	209.795
384.763	237.654
387.656	294.356
390.549	403.989
393.441	648.743
396.334	963.521
399.227	1387.17
402.119	1659.96
405.012	1758.55
407.905	1287.76
410.798	855.721
413.69	554.945
416.583	379.691
419.476	274.841
422.368	218.36
425.261	135.642
428.154	99.479
431.046	67.8855
433.939	44.7629
436.832	20.4185
439.724	17.6748
442.617	13.0229
445.51	2.8501
448.403	4.45068
451.295	24.2981
454.188	7.61841
457.081	13.1724
459.973	41.8499
462.866	14.2395
465.759	38.2786
468.651	4.27661
471.544	78.1523
474.437	59.0335
477.33	37.9529
480.222	45.6814
483.115	22.7578
486.008	49.7588
488.9	42.9512
491.793	14.481
494.686	3.77637
497.579	2.05469
500.471	9.91626
503.364	13.168
506.257	0.56543
509.149	1.76489
512.042	15.4783
514.935	19.3796
517.827	35.6575
520.72	7.22363
523.613	16.8843
526.505	22.3181
529.398	40.0022
532.291	37.3577
535.184	29.2651
538.076	65.9792
540.969	102.575
543.862	152.086
546.754	156.491
549.647	156.528
552.54	188.788
555.433	194.895
558.325	168.015
561.218	171.383
564.111	146.239
567.003	124.126
569.896	111.727
572.789	80.4629
575.681	75.1177
578.574	81.4409
581.467	123.609
584.36	69.0139
587.252	95.6672
590.145	92.5769
593.038	91.478
595.93	103.879
598.823	97.5752
601.716	108.693
604.609	99.1812
607.501	72.5442
610.394	65.9158
613.287	76.0847
616.179	80.5352
619.072	83.4233
621.965	74.5032
624.857	137.826
627.75	99.4065
630.643	106.182
633.535	107.28
636.428	111.272
639.321	129.998
642.214	133.974
645.106	164.226
647.999	234.725
650.892	276.279
653.784	348.832
656.677	484.282
659.57	593.661
662.462	524.584
665.355	441.742
668.248	322.107
671.141	242.056
674.033	149.9
676.926	77.8997
679.819	44.3396
682.711	12.394
685.604	7.5188
688.497	21.3113
691.389	42.6814
694.282	26.8337
697.175	21.3896
700.068	54.6562
702.96	79.344
705.853	93.4639
708.746	96.282
711.638	110.543
714.531	95.9624
717.424	98.4273
720.317	106.6
723.209	41.8115
726.102	46.0266
728.995	29.8328
731.887	51.5376
734.78	34.6926
737.673	97.1768
740.565	111.674
743.458	156.173
746.351	145.173
749.244	269.294
752.136	381.559
755.029	473.915
757.922	559.352
760.814	602.942
763.707	579.829
766.6	444.339
769.492	383.026
772.385	272.976
775.278	229.166
778.17	198.68
781.063	180.784
783.956	162.487
786.849	182.605
789.741	143.392
792.634	156.723
795.527	98.4321
798.419	126.78
801.312	85.0767
804.205	110.06
807.097	129.924
809.99	181.148
812.883	177.994
815.776	80.999
818.668	51.1824
821.561	29.4277
824.454	18.9736
827.346	14.8538
830.239	11.2576
833.132	19.889
836.024	8.08044
838.917	0.901489
841.81	0.957397
844.703	4.45825
847.595	0.664795
850.488	42.7069
853.381	1.27173
856.273	12.4271
859.166	13.6765
862.059	7.30835
864.952	3.17749
867.844	21.3446
870.737	15.4031
873.63	12.2384
876.522	24.0216
879.415	32.5493
882.308	24.4959
885.2	16.9891
888.093	42.1271
890.986	35.9713
893.879	23.1794
896.771	48.309
899.664	19.7953
902.557	24.8297
905.449	25.5977
908.342	22.5767
911.235	30.153
914.127	63.964
917.02	12.2581
919.913	34.2294
922.806	26.4219
925.698	30.8592
928.591	32.3827
931.484	21.7402
934.376	47.5223
937.269	20.8635
940.162	18.3346
943.054	44.5259
945.947	42.4983
948.84	4.11243
951.732	43.4449
954.625	73.4457
957.518	51.7524
960.411	63.613
963.303	55.2647
966.196	37.9747
969.089	73.2116
971.981	71.8018
974.874	49.71
977.767	76.1555
980.659	101.252
983.552	62.1812
986.445	99.0781
989.338	54.2736
992.23	40.2755
995.123	38.7716
998.016	61.603
1000.91	5.09106
1003.8	54.1677
1006.69	40.532
1009.59	26.0828
1012.48	0.309326
1015.37	30.5911
1018.26	22.6663
1021.16	25.1318
1024.05	16.5984
1026.94	22.1367
1029.84	0.138916
1032.73	29.7734
1035.62	18.6653
1038.51	29.3713
1041.41	30.6902
1044.3	31.6946
1047.19	65.3203
1050.08	32.8931
1052.98	17.8814
1055.87	18.9544
1058.76	8.03198
1061.65	22.4785
1064.55	40.1748
1067.44	36.8569
1070.33	10.1457
1073.23	44.6589
1076.12	52.1758
1079.01	84.6328
1081.9	76.0698
1084.8	87.2861
1087.69	89.8057
1090.58	107.326
1093.47	89.1885
1096.37	119.438
1099.26	96.5244
1102.15	78.0056
1105.05	69.2207
1107.94	62.7678
1110.83	77.0134
1113.72	22.2417
1116.62	45.5957
1119.51	59.9797
1122.4	36.8132
1125.3	5.27783
1128.19	1.83081
1131.08	16.9265
1133.97	34.2866
1136.87	9.15039
1139.76	42.0659
1142.65	57.5125
1145.54	30.1438
1148.44	7.82739
1151.33	72.7207
1154.22	52.7754
1157.11	47.3901
1160.01	86.3804
1162.9	61.7393
1165.79	42.0205
1168.68	55.7358
1171.58	99.8613
1174.47	76.5264
1177.36	106.846
1180.26	68.4766
1183.15	52.251
1186.04	37.8325
1188.93	106.468
1191.83	28.0586
1194.72	74.1977
1197.61	96.3574
1200.51	72.9419
1203.4	38.0684
1206.29	19.481
1209.18	115.065
1212.08	70.7217
1214.97	79.3569
1217.86	73.3887
1220.75	87.125
1223.65	98.9136
1226.54	85.0688
1229.43	95.6001
1232.32	55.3306
1235.22	79.1377
1238.11	45.1421
1241	34.1299
1243.89	80.8335
1246.79	63.523
1249.68	13.6504
1252.57	42.8242
1255.47	0.093262
