Measurement: Raman, 785 nm, unoriented, Raman Data Processed
Mineral: Wilhelmkleinite
Rruff sample: R070060
Ideal chemistry: Zn^2+^Fe^3+^_2_(As^5+^O_4_)_2_(OH)_2_
Locality: Tsumeb mine, Tsumeb, Otavi District, Oshikoto, Namibia
Source: William W. Pinch
Description: Dark green bladed crystal, vug has large xl with Parasymplessite xls, smaller xl removed from this larger one
Measured chemistry: (Zn_0.90_Fe^2+^_0.07_Cu_0.03_)_Σ=1_(Fe^3+^_1.99_Al_0.01_)_Σ=2_(As_1.00_O_4_)_2_(OH)_2_ ; OH estimated by difference; Fe2+ and Fe3+ proportions estimated by charge balance and stoichiometry
Raman shift (cm-1)	intensity
140.113	0
143.005	4.43628
145.898	5.6524
148.791	41.5066
151.683	79.2449
154.576	79.0585
157.469	46.7795
160.362	23.9211
163.254	15.2245
166.147	20.1391
169.04	21.545
171.932	49.8291
174.825	64.1146
177.718	62.2028
180.61	93.8305
183.503	125.167
186.396	151.757
189.288	186.714
192.181	255.912
195.074	329.029
197.967	391.782
200.859	503.413
203.752	654.563
206.645	708.647
209.537	544.67
212.43	305.817
215.323	216.395
218.215	164.756
221.108	136.714
224.001	101.141
226.894	106.064
229.786	69.2035
232.679	80.8268
235.572	63.938
238.464	66.5396
241.357	91.7073
244.25	80.9328
247.142	55.1914
250.035	8.99347
252.928	19.7482
255.821	4.38837
258.713	11.2026
261.606	9.31735
264.499	7.59403
267.391	12.4727
270.284	17.6503
273.177	9.40164
276.069	29.3336
278.962	35.7652
281.855	61.5289
284.748	27.229
287.64	62.3582
290.533	51.481
293.426	87.2068
296.318	118.925
299.211	125.891
302.104	138.834
304.996	84.5277
307.889	66.4837
310.782	26.9743
313.675	10.8884
316.567	25.1493
319.46	1.98428
322.353	0.152283
325.245	16.1069
328.138	3.05167
331.031	15.3755
333.923	12.5335
336.816	22.9618
339.709	20.1722
342.601	2.06482
345.494	22.7505
348.387	7.11572
351.28	7.97702
354.172	11.9743
357.065	23.7862
359.958	16.3079
362.85	21.5526
365.743	23.9573
368.636	41.9843
371.529	129.196
374.421	167.001
377.314	191.835
380.207	259.834
383.099	306.26
385.992	271.547
388.885	176.357
391.777	100.844
394.67	46.2653
397.563	7.77862
400.455	7.98639
403.348	28.4542
406.241	19.8333
409.134	34.1597
412.026	45.0654
414.919	86.7186
417.812	103.827
420.704	152.697
423.597	198.947
426.49	233.959
429.382	197.906
432.275	146.165
435.168	94.0306
438.061	87.2398
440.953	55.072
443.846	79.2688
446.739	92.4937
449.631	124.58
452.524	142.246
455.417	156.351
458.31	159.703
461.202	141.999
464.095	122.946
466.988	95.8624
469.88	71.406
472.773	76.8253
475.666	84.0034
478.558	87.518
481.451	94.8096
484.344	96.4597
487.236	141.308
490.129	177.992
493.022	232.115
495.915	238.151
498.807	231.939
501.7	180.05
504.593	153.538
507.485	115.887
510.378	122.922
513.271	76.9215
516.163	88.9422
519.056	47.5482
521.949	78.328
524.842	41.2581
527.734	14.5243
530.627	22.216
533.52	10.0346
536.412	0.387665
539.305	3.13828
542.198	2.98572
545.091	2.48364
547.983	4.27673
550.876	9.08768
553.769	7.39566
556.661	10.7247
559.554	5.95078
562.447	2.38167
565.339	3.71695
568.232	11.2122
571.125	7.71655
574.018	16.5293
576.91	18.7532
579.803	35.7661
582.696	25.7124
585.588	35.6622
588.481	47.3148
591.374	24.9284
594.266	40.1355
597.159	35.7322
600.052	34.1261
602.944	33.2633
605.837	25.9698
608.73	39.7149
611.623	24.3891
614.515	33.69
617.408	28.4941
620.301	27.4774
623.193	28.6637
626.086	25.1918
628.979	21.5968
631.871	21.1517
634.764	26.2294
637.657	28.0522
640.549	22.228
643.442	6.69974
646.335	15.0656
649.228	11.1172
652.12	0.689651
655.013	19.5494
657.906	33.594
660.798	13.4363
663.691	19.6502
666.584	15.6122
669.476	25.7706
672.369	10.1127
675.262	5.40709
678.155	18.2341
681.047	11.614
683.94	35.7709
686.833	29.2793
689.725	17.1227
692.618	21.2821
695.511	46.6727
698.404	15.3095
701.296	8.04924
704.189	28.4163
707.082	12.0906
709.974	22.6145
712.867	12.7784
715.76	13.4184
718.652	9.94751
721.545	21.8429
724.438	11.7731
727.331	10.5146
730.223	11.0175
733.116	8.28125
736.009	3.06627
738.901	20.9763
741.794	18.7691
744.687	41.0543
747.579	0.981201
750.472	19.9431
753.365	19.196
756.258	18.8188
759.15	19.2195
762.043	29.9639
764.936	2.03592
767.828	3.09946
770.721	10.0121
773.614	17.5891
776.506	15.6738
779.399	27.375
782.292	28.9066
785.184	48.0031
788.077	68.536
790.97	90.1151
793.863	174.785
796.755	231.181
799.648	273.447
802.541	312.028
805.433	281.565
808.326	215.895
811.219	174.073
814.111	171.357
817.004	190.177
819.897	191.029
822.79	169.316
825.682	155.901
828.575	130.59
831.468	92.5349
834.36	76.0661
837.253	67.7093
840.146	57.2774
843.038	54.9437
845.931	78.657
848.824	100.657
851.717	79.3229
854.609	67.6045
857.502	76.157
860.395	58.9549
863.287	35.715
866.18	37.9556
869.073	16.4736
871.966	9.17682
874.858	22.4629
877.751	4.74109
880.644	27.2015
883.536	1.54126
886.429	26.455
889.322	41.4267
892.214	82.1502
895.107	124.759
898	208.38
900.893	318.57
903.785	499.383
906.678	703.893
909.571	805.314
912.463	694.41
915.356	465.063
918.249	264.161
921.141	171.356
924.034	112.394
926.927	74.3081
929.819	48.1189
932.712	54.9075
935.605	36.9112
938.498	18.4334
941.39	32.3988
944.283	8.74506
947.176	9.76764
950.068	22.7363
952.961	14.6712
955.854	9.96753
958.746	1.06584
961.639	3.33746
964.532	0.7742
967.424	17.0496
970.317	13.0358
973.21	10.8813
976.103	7.02336
978.995	5.2121
981.888	5.00052
984.781	14.7648
987.673	11.9374
990.566	23.36
993.459	30.2141
996.351	8.1499
999.244	22.4334
1002.14	11.5516
1005.03	21.7933
1007.92	20.206
1010.82	20.9529
1013.71	18.3499
1016.6	28.1577
1019.49	16.9587
1022.39	22.3369
1025.28	25.868
1028.17	28.7654
1031.06	4.39247
1033.96	21.2234
1036.85	11.5978
1039.74	31.2042
1042.63	12.1653
1045.53	46.0148
1048.42	36.5394
1051.31	13.4712
1054.2	8.28284
1057.1	22.844
1059.99	16.7578
1062.88	15.5835
1065.78	4.80858
1068.67	10.9342
1071.56	15.3185
1074.45	5.46948
1077.35	21.1897
1080.24	15.5145
1083.13	12.6737
1086.03	24.2682
1088.92	14.8346
1091.81	0.02739
1094.7	24.7422
1097.6	10.8492
1100.49	19.2856
1103.38	21.9519
1106.27	18.3279
1109.17	16.9611
1112.06	21.1674
1114.95	15.8604
1117.85	13.9466
1120.74	4.8163
1123.63	12.2934
1126.52	15.3553
1129.42	40.2175
1132.31	7.67552
1135.2	8.45161
1138.09	18.9714
1140.99	3.73317
1143.88	18.5299
1146.77	21.9514
1149.66	17.0752
1152.56	6.78262
1155.45	20.3151
1158.34	26.3376
1161.23	0.452637
1164.13	20.948
1167.02	15.8298
1169.91	26.0292
1172.81	22.8092
1175.7	34.7091
1178.59	17.1389
1181.48	27.1401
1184.38	17.936
1187.27	15.1006
1190.16	3.21451
1193.06	15.9571
1195.95	26.8818
1198.84	37.204
1201.73	18.1701
1204.63	37.015
1207.52	18.3561
1210.41	27.831
1213.3	19.2942
1216.2	21.22
1219.09	22.0549
1221.98	16.0889
1224.88	16.3111
1227.77	20.3286
1230.66	37.0888
1233.55	13.5815
1236.45	14.2991
1239.34	3.50447
1242.23	8.38248
