Measurement: Raman, 532 nm, unoriented, Raman Data Processed
Mineral: Wilhelmkleinite
Rruff sample: R070060
Ideal chemistry: Zn^2+^Fe^3+^_2_(As^5+^O_4_)_2_(OH)_2_
Locality: Tsumeb mine, Tsumeb, Otavi District, Oshikoto, Namibia
Source: William W. Pinch
Description: Dark green bladed crystal, vug has large xl with Parasymplessite xls, smaller xl removed from this larger one
Measured chemistry: (Zn_0.90_Fe^2+^_0.07_Cu_0.03_)_Σ=1_(Fe^3+^_1.99_Al_0.01_)_Σ=2_(As_1.00_O_4_)_2_(OH)_2_ ; OH estimated by difference; Fe2+ and Fe3+ proportions estimated by charge balance and stoichiometry
Raman shift (cm-1)	intensity
140.057	0
143.432	51.3787
146.807	73.5178
150.182	177.943
153.556	333.684
156.931	182.796
160.306	34.0719
163.681	0.507874
167.056	4.09106
170.431	2.79483
173.805	40.9687
177.18	70.1864
180.555	115.461
183.93	214.239
187.305	309.101
190.679	447.229
194.054	616.871
197.429	853.12
200.804	1187.94
204.179	1526.77
207.554	1283.05
210.928	661.494
214.303	377.97
217.678	258.132
221.053	161.697
224.428	138.097
227.803	113.334
231.177	145.356
234.552	176.854
237.927	229.338
241.302	296.582
244.677	253.173
248.051	100.66
251.426	12.8961
254.801	38.8538
258.176	5.87256
261.551	12.1531
264.925	9.48077
268.3	36.262
271.675	67.6172
275.05	86.0886
278.425	106.26
281.8	133.981
285.174	126.418
288.549	180.693
291.924	302.777
295.299	437.358
298.674	619.806
302.048	609.856
305.423	343.055
308.798	171.275
312.173	56.957
315.548	15.3179
318.923	8.96484
322.297	7.52948
325.672	96.7472
329.047	213.246
332.422	380.639
335.797	553.413
339.171	715.89
342.546	875.617
345.921	906.07
349.296	757.304
352.671	551.522
356.046	394.36
359.42	366.784
362.795	437.413
366.17	659.401
369.545	981.578
372.92	1390.35
376.295	1796.97
379.669	2224.21
383.044	2302.52
386.419	1798.21
389.794	1007.53
393.169	519.159
396.543	247.433
399.918	110.507
403.293	15.2661
406.668	23.0335
410.043	29.2716
413.418	22.1419
416.792	109.177
420.167	192.827
423.542	277.824
426.917	294.501
430.292	238.069
433.666	152.098
437.041	69.6714
440.416	76.1666
443.791	66.2096
447.166	119.21
450.541	151.135
453.915	202.059
457.29	236.656
460.665	187.07
464.04	135.03
467.415	87.6841
470.789	83.4917
474.164	117.367
477.539	185.14
480.914	256.291
484.289	376.883
487.663	550.35
491.038	704.33
494.413	785.748
497.788	673.191
501.163	475.553
504.538	311.103
507.912	174.888
511.287	109.619
514.662	65.2573
518.037	54.8015
521.412	35.9774
524.787	6.90372
528.161	2.94226
531.536	16.1653
534.911	2.2568
538.286	12.9976
541.661	3.34638
545.035	17.6604
548.41	6.87219
551.785	8.19782
555.16	19.3429
558.535	31.4127
561.909	42.5226
565.284	43.5967
568.659	58.0778
572.034	49.5027
575.409	57.0248
578.784	58.5987
582.158	77.2933
585.533	77.0767
588.908	80.8444
592.283	70.0414
595.658	82.8876
599.033	80.3564
602.407	67.6744
605.782	67.096
609.157	68.6019
612.532	69.7331
615.907	71.2062
619.281	76.2655
622.656	89.7722
626.031	80.0883
629.406	86.2987
632.781	101.44
636.155	100.442
639.53	96.1522
642.905	110.425
646.28	113.676
649.655	112.391
653.03	110.388
656.404	107.746
659.779	112.345
663.154	92.5496
666.529	77.8006
669.904	70.2846
673.279	68.753
676.653	42.1528
680.028	37.5456
683.403	32.4313
686.778	36.7853
690.153	2.25745
693.528	9.74045
696.902	12.8242
700.277	10.7218
703.652	10.4498
707.027	18.5443
710.402	19.1688
713.776	13.2899
717.151	5.67279
720.526	14.3329
723.901	12.9546
727.276	35.1703
730.65	44.9806
734.025	74.8992
737.4	110.567
740.775	165.918
744.15	233.238
747.524	341.484
750.899	409.729
754.274	443.769
757.649	450.684
761.024	413.796
764.399	312.915
767.773	187.869
771.148	109.643
774.523	41.7838
777.898	31.7406
781.273	70.5732
784.648	247.878
788.022	492.17
791.397	920.318
794.772	1474.3
798.147	1934.54
801.522	2176.03
804.896	2036.18
808.271	1851.39
811.646	1834.08
815.021	2084.24
818.396	2290.14
821.771	2230.31
825.145	1726.64
828.52	1135.21
831.895	714.464
835.27	549.288
838.645	596.551
842.019	710.763
845.394	981.321
848.769	1343.97
852.144	1863.36
855.519	2389.19
858.894	2712.13
862.268	2362.39
865.643	1535.92
869.018	770.089
872.393	341.023
875.768	108.906
879.143	5.61768
882.517	83.9005
885.892	41.251
889.267	2.93854
892.642	97.8383
896.016	341.74
899.391	791.329
902.766	1415.71
906.141	2022.71
909.516	2185.82
912.891	1575.76
916.265	885.053
919.64	793.24
923.015	242.583
926.39	162.913
929.765	89.6221
933.14	56.2897
936.514	60.8249
939.889	11.747
943.264	2.55008
946.639	6.14395
950.014	1.76584
953.389	2.3476
956.763	15.4158
960.138	15.8874
963.513	26.0325
966.888	12.1024
970.263	25.0569
973.637	33.1935
977.012	31.3441
980.387	30.1408
983.762	53.2022
987.137	42.5238
990.511	69.2596
993.886	49.4421
997.261	70.4726
1000.64	61.3209
1004.01	57.6864
1007.39	58.3862
1010.76	60.3211
1014.13	56.3792
1017.51	55.4796
1020.88	61.6199
1024.26	66.0113
1027.63	67.1058
1031.01	62.7506
1034.38	65.5137
1037.76	78.1248
1041.13	94.3403
1044.51	99.775
1047.88	104.305
1051.26	103.529
1054.63	137.531
1058.01	126.02
1061.38	107.476
1064.76	89.3845
1068.13	70.4987
1071.51	38.5066
1074.88	37.8073
1078.26	13.5621
1081.63	28.6743
1085.01	11.138
1088.38	13.8914
1091.76	4.38995
1095.13	14.0695
1098.51	9.01395
1101.88	9.04468
1105.26	13.5335
1108.63	3.19495
1112.01	8.32611
1115.38	15.3963
1118.76	0.257111
1122.13	3.35349
1125.5	6.31961
1128.88	4.58414
1132.25	5.55457
1135.63	4.23859
1139	8.73126
1142.38	9.21503
1145.75	12.5548
1149.13	9.31091
1152.5	18.9602
1155.88	26.072
1159.25	5.4841
1162.63	26.4671
1166	14.0913
1169.38	10.0131
1172.75	9.90259
1176.13	22.8723
1179.5	12.8488
1182.88	11.2026
1186.25	13.1519
1189.63	12.8362
1193	17.2141
1196.38	21.9533
1199.75	12.6143
1203.12	10.1291
1206.5	21.8747
1209.88	6.57855
1213.25	30.6728
1216.62	24.3497
1220	12.5139
1223.37	15.767
1226.75	17.0118
1230.12	14.5121
1233.5	28.5359
1236.87	18.0713
1240.25	8.16614
1243.62	27.3602
1247	11.6072
1250.37	16.6878
1253.75	5.41522
1257.12	23.2346
1260.5	10.6974
1263.87	6.14972
1267.25	13.4247
1270.62	12.2356
1274	24.1815
1277.37	12.6917
1280.75	17.4903
1284.12	13.6949
1287.49	27.128
1290.87	6.3671
1294.24	26.4341
1297.62	13.2562
1300.99	24.8213
1304.37	5.52771
1307.74	18.6547
1311.12	4.30963
1314.49	20.4965
