Measurement: Raman, 785 nm, unoriented, Raman Data Processed
Mineral: Willhendersonite
Rruff sample: R060508
Ideal chemistry: KCa(Si_3_Al_3_)O_12_5H_2_O
Locality: San Venzano Quarry, Terni, Umbria, central Italy
Source: Michael Scott
Description: Colorless tabular crystals forming a spherical aggregate
Measured chemistry: (K_0.98_Na_0.02_)_Σ=1_Ca_1.00_(Si_3.06_Al_2.93_Fe^3+^_0.01_)_Σ=6_O_12_·5.43H_2_ O ; H_2_O estimated by difference; Fe^3+^ by charge balance
Raman shift (cm-1)	intensity
169.74	0
172.632	61.363
175.525	2.396
178.418	49.821
181.311	91.919
184.203	152.273
187.096	132.899
189.989	128.967
192.881	95.459
195.774	41.135
198.667	14.101
201.559	17.398
204.452	69.315
207.345	136.663
210.238	190.219
213.13	244.054
216.023	327.849
218.916	357.345
221.808	315.753
224.701	279.607
227.594	258.875
230.486	220.885
233.379	163.845
236.272	226.244
239.165	232.95
242.057	223.208
244.95	266.102
247.843	228.41
250.735	168.503
253.628	149.351
256.521	40.159
259.413	11.171
262.306	5.384
265.199	10.342
268.091	64.697
270.984	86.412
273.877	154.969
276.77	183.946
279.662	204.896
282.555	162.579
285.448	129.324
288.34	41.477
291.233	44.517
294.126	72.82
297.018	61.648
299.911	57.906
302.804	84.213
305.697	96.582
308.589	154.107
311.482	131.449
314.375	143.217
317.267	180.88
320.16	255.462
323.053	356.132
325.945	505.734
328.838	646.515
331.731	602.012
334.624	435.729
337.516	243.235
340.409	187.29
343.302	99.493
346.194	50.744
349.087	12.56
351.98	15.201
354.872	31.826
357.765	90.983
360.658	205.564
363.551	198.054
366.443	134.037
369.336	69.631
372.229	47.055
375.121	91.581
378.014	164.026
380.907	205.584
383.799	216.248
386.692	148.304
389.585	158.094
392.478	273.881
395.37	396.276
398.263	442.989
401.156	444.853
404.048	449.89
406.941	534.267
409.834	472.044
412.727	273.928
415.619	141.227
418.512	1.778
421.405	2.063
424.297	41.232
427.19	15.85
430.083	122.74
432.975	152.616
435.868	49.696
438.761	29.008
441.654	81.762
444.546	181.74
447.439	253.175
450.332	289.975
453.224	249.011
456.117	171.253
459.01	144.903
461.902	145.951
464.795	182.72
467.688	246.833
470.58	349.339
473.473	262.754
476.366	129.286
479.259	41.696
482.151	36.504
485.044	2.815
487.937	19.37
490.829	59.041
493.722	227.446
496.615	396.049
499.507	603.98
502.4	853.032
505.293	1274.64
508.185	1739.06
511.078	2332.45
513.971	2948.89
516.864	2846
519.756	2195.65
522.649	1772.76
525.542	1262.81
528.434	634.317
531.327	388.463
534.22	270.642
537.112	188.111
540.005	128.721
542.898	101.144
545.791	76.122
548.683	19.861
551.576	5.045
554.469	19.513
557.362	3.9
560.254	4.559
563.147	40.251
566.04	53.319
568.932	46.809
571.825	50.341
574.718	37.44
577.61	54.951
580.503	58.813
583.396	62.639
586.289	78.112
589.181	13.483
592.074	26.337
594.967	27.42
597.859	8.977
600.752	7.611
603.645	3.174
606.537	6.064
609.43	12.756
612.323	6.154
615.216	15.555
618.108	22.118
621.001	37.602
623.894	14.064
626.786	20.711
629.679	25.264
632.572	3.144
635.464	18.384
638.357	44.442
641.25	13.82
644.143	37.917
647.035	38.827
649.928	27.493
652.821	28.912
655.713	53.679
658.606	48.384
661.499	18.971
664.391	34.413
667.284	13.109
670.177	7.616
673.07	10.704
675.962	28.064
678.855	40.182
681.748	4.415
684.64	7.977
687.533	41.277
690.426	43.032
693.318	45.943
696.211	29.943
699.104	48.926
701.997	69.555
704.889	86.76
707.782	115.395
710.675	146.498
713.567	159.009
716.46	127.985
719.353	124.846
722.245	47.26
725.138	82.757
728.031	66.133
730.924	79.029
733.816	54.139
736.709	81.724
739.602	76.598
742.494	90.605
745.387	67.067
748.28	60.38
751.172	84.827
754.065	106.005
756.958	94.169
759.851	88.255
762.743	101.086
765.636	129.482
768.529	98.802
771.421	94.334
774.314	93.827
777.207	82.341
780.099	81.847
782.992	50.317
785.885	59.229
788.778	36.171
791.67	51.882
794.563	24.094
797.456	5.297
800.348	24.64
803.241	3.191
806.134	20.304
809.026	9.425
811.919	31.885
814.812	37.963
817.705	32.683
820.597	3.359
823.49	32.23
826.383	26.755
829.275	13.059
832.168	7.99
835.061	7.657
837.953	23.757
840.846	63.152
843.739	34.853
846.631	15.116
849.524	25.849
852.417	27.29
855.31	1.824
858.202	31.036
861.095	42.729
863.988	39.613
866.88	6.589
869.773	13.168
872.666	31.184
875.558	21.629
878.451	18.762
881.344	1.856
884.237	10.249
887.129	20.78
890.022	38.359
892.915	4.601
895.807	1.588
898.7	26.821
901.593	20.832
904.485	21.88
907.378	9.464
910.271	40.134
913.164	38.083
916.056	51.453
918.949	90.387
921.842	50.516
924.734	65.575
927.627	54.936
930.52	115.93
933.412	176.529
936.305	233.924
939.198	336.635
942.091	435.061
944.983	462.188
947.876	485.197
950.769	529.655
953.661	336.176
956.554	241.434
959.447	147.779
962.339	101.127
965.232	51.43
968.125	56.788
971.018	32.677
973.91	58.863
976.803	38.002
979.696	51.006
982.588	31.132
985.481	5.375
988.374	12.59
991.266	49.164
994.159	3.277
997.052	27.318
999.945	51.141
1002.84	59.78
1005.73	68.434
1008.62	37.146
1011.51	52.038
1014.41	75.715
1017.3	37.091
1020.19	47.187
1023.09	35.822
1025.98	33.805
1028.87	66.916
1031.76	111.581
1034.66	99.38
1037.55	181.816
1040.44	259.358
1043.34	309.598
1046.23	306.185
1049.12	264.762
1052.01	184.04
1054.91	113.314
1057.8	81.053
1060.69	47.286
1063.58	11.934
1066.48	26.667
1069.37	49.089
1072.26	9.17
1075.15	16.277
1078.05	6.138
1080.94	10.398
1083.83	6.872
1086.72	9.202
1089.62	9.655
1092.51	0.671
1095.4	19.991
1098.3	13.283
1101.19	12.146
1104.08	24.12
1106.97	42.129
1109.87	11.843
1112.76	67.427
1115.65	49.465
1118.55	43.326
1121.44	66.138
1124.33	36.261
1127.22	60.59
1130.12	60.106
1133.01	61.765
1135.9	45.74
1138.79	42.023
1141.69	35.783
1144.58	14.718
1147.47	11.818
1150.37	44.267
1153.26	8.663
1156.15	12.871
1159.04	17.979
1161.94	5.809
1164.83	13.731
1167.72	4.28
1170.61	53.486
1173.51	63.727
1176.4	32.186
1179.29	118.985
1182.18	128.662
1185.08	85.295
1187.97	105.771
1190.86	137.173
1193.76	74.611
1196.65	69.656
1199.54	37.059
