Measurement: Raman, 780 nm, unoriented, Raman Data Processed
Mineral: Willemite
Rruff sample: R100109
Ideal chemistry: Zn_2_SiO_4_
Locality: Franklin, Sussex County, New Jersey, USA
Source: American Museum of Natural History
Description: Pale yellow transparent fragments
Measured chemistry: (Zn_1.677_Mn^+2^_0.242_Mg_0.034_Fe^+2^_0.001_)_Î£=1.954_Si_1.023_O_4_
Raman shift (cm-1)	intensity
119.014	0
122.389	0.429329
125.763	0.895794
129.138	0.794758
132.513	0.821327
135.888	0.643909
139.263	5.13849
142.638	6.00593
146.012	3.40812
149.387	1.4291
152.762	0.745453
156.137	1.90986
159.512	0.919216
162.887	1.87145
166.261	1.66872
169.636	2.26386
173.011	3.22487
176.386	4.10736
179.761	2.5438
183.135	3.76375
186.51	4.43464
189.885	8.88905
193.26	12.1816
196.635	8.039
200.01	4.82412
203.384	2.24659
206.759	2.76931
210.134	2.21563
213.509	2.03713
216.884	3.09302
220.258	1.44582
223.633	2.24086
227.008	0.967648
230.383	1.54484
233.758	2.05883
237.132	1.26444
240.507	0.803226
243.882	0.439072
247.257	0.188118
250.632	0.126324
254.006	0.031269
257.381	0.211296
260.756	1.63072
264.131	2.44544
267.506	2.24416
270.881	4.17647
274.255	4.51508
277.63	5.15392
281.005	9.68988
284.38	10.0199
287.755	6.38387
291.13	4.65615
294.504	5.10912
297.879	4.17052
301.254	4.79919
304.629	1.55876
308.004	0.480114
311.378	0.046108
314.753	0.626305
318.128	0.319485
321.503	0.94315
324.878	0.486244
328.252	1.08248
331.627	0.813297
335.002	0.545124
338.377	0.172447
341.752	0.777138
345.127	2.24614
348.501	1.17103
351.876	0.415066
355.251	1.99337
358.626	1.84817
362.001	2.93473
365.375	5.05593
368.75	6.00503
372.125	8.15625
375.5	12.0929
378.875	14.9178
382.25	15.4126
385.624	18.0767
388.999	17.0419
392.374	15.3609
395.749	13.3124
399.124	11.8453
402.498	9.89558
405.873	5.65669
409.248	4.33315
412.623	2.57386
415.998	1.74591
419.373	1.472
422.747	0.107851
426.122	1.05473
429.497	0.523952
432.872	0.669973
436.247	0.085546
439.622	1.21165
442.996	0.307074
446.371	0.553251
449.746	1.58025
453.121	1.4497
456.496	1.30057
459.87	1.49586
463.245	1.92088
466.62	1.43303
469.995	3.59389
473.37	3.41354
476.745	3.93147
480.119	4.15205
483.494	4.8697
486.869	3.974
490.244	3.07643
493.619	2.38815
496.993	2.08363
500.368	1.68324
503.743	0.944046
507.118	1.18798
510.493	1.33031
513.867	1.00414
517.242	0.156563
520.617	0.184851
523.992	0.376301
527.367	0.126919
530.741	1.00006
534.116	1.50058
537.491	2.47115
540.866	4.83528
544.241	7.41589
547.616	7.52137
550.99	8.05519
554.365	4.51817
557.74	2.24098
561.115	1.65226
564.49	2.30953
567.865	3.17579
571.239	3.61723
574.614	3.17087
577.989	2.67166
581.364	3.85515
584.739	3.07678
588.114	2.84556
591.488	3.51676
594.863	5.33183
598.238	4.5161
601.613	4.23027
604.987	3.85437
608.362	3.25022
611.737	3.2564
615.112	3.20461
618.487	4.36764
621.862	2.94339
625.236	2.48335
628.611	1.57322
631.986	1.29543
635.361	1.59214
638.736	0.422441
642.111	0.192539
645.485	2.73157
648.86	7.36071
652.235	9.08043
655.61	8.81142
658.985	0.718996
662.359	0.363956
665.734	0.23233
669.109	0.986908
672.484	0.847914
675.859	1.93481
679.234	0.709967
682.608	1.7947
685.983	1.16498
689.358	2.55574
692.733	2.58265
696.108	1.70538
699.482	0.655231
702.857	1.85547
706.232	1.06375
709.607	0.887619
712.982	1.49151
716.356	2.18819
719.731	1.89089
723.106	0.470219
726.481	1.0415
729.856	1.33149
733.231	0.831133
736.605	1.52347
739.98	1.23757
743.355	1.0496
746.73	0.139732
750.105	1.24361
753.48	0.212858
756.854	0.855497
760.229	0.349874
763.604	0.765375
766.979	1.05245
770.354	1.44962
773.728	0.929972
777.103	1.16292
780.478	0.222746
783.853	1.90446
787.228	0.062973
790.602	0.665058
793.977	1.47795
797.352	0.379463
800.727	1.58482
804.102	0.744783
807.477	0.843079
810.851	0.212042
814.226	0.676561
817.601	0.03536
820.976	0.28182
824.351	0.543791
827.726	0.596075
831.1	0.64599
834.475	0.812489
837.85	1.70484
841.225	3.75956
844.6	6.60175
847.974	10.0421
851.349	17.5317
854.724	30.8011
858.099	50.431
861.474	77.9061
864.848	113.846
868.223	152.89
871.598	173.357
874.973	145.302
878.348	90.1319
881.722	49.7131
885.097	29.9256
888.472	19.1103
891.847	13.2353
895.222	10.6781
898.597	10.6918
901.971	9.95653
905.346	13.4274
908.721	13.5084
912.096	9.68283
915.471	3.36748
918.846	2.17159
922.22	1.19958
925.595	0.34388
928.97	0.215584
932.345	1.11629
935.72	1.99283
939.094	2.04223
942.469	4.87429
945.844	7.91979
949.219	8.83729
952.594	8.3617
955.968	8.52371
959.343	5.30116
962.718	3.93154
966.093	1.07369
969.468	1.52478
972.843	0.167076
976.217	0.760592
979.592	0.172712
982.967	0.222916
986.342	0.129126
989.717	0.378845
993.091	1.37995
996.466	0.418427
999.841	0.393839
1003.22	1.26787
1006.59	0.200214
1009.97	1.71823
1013.34	1.74028
1016.72	0.333988
1020.09	1.27035
1023.47	1.51617
1026.84	1.55175
1030.21	0.03722
1033.59	1.01535
1036.96	1.40246
1040.34	1.60308
1043.71	1.40424
1047.09	1.87331
1050.46	1.25567
1053.84	1.56045
1057.21	0.37885
1060.59	1.21115
1063.96	1.00868
1067.34	0.858857
1070.71	0.774912
1074.09	1.10633
1077.46	1.70022
1080.84	0.527202
1084.21	1.73121
1087.59	1.69582
1090.96	1.47723
1094.34	1.73106
1097.71	0.776051
1101.09	1.51174
1104.46	1.08616
1107.84	0.770723
1111.21	0.082951
1114.59	0.220578
1117.96	0.368848
1121.34	1.04307
1124.71	0.57263
1128.08	0.9462
1131.46	0.101461
1134.83	0.113636
1138.21	0.625564
1141.58	0.834111
1144.96	0.302179
1148.33	1.17325
1151.71	1.86116
1155.08	1.49682
1158.46	1.05859
1161.83	1.12804
1165.21	2.08307
1168.58	1.49945
1171.96	0.999076
1175.33	1.30403
1178.71	1.19352
1182.08	1.24909
1185.46	0.15786
1188.83	1.77727
1192.21	2.04474
1195.58	1.38914
1198.95	1.94952
1202.33	1.62725
1205.7	0.530117
1209.08	1.51219
1212.45	0.990696
1215.83	1.14744
1219.2	0.898017
1222.58	1.37667
1225.95	0.758183
1229.33	1.2565
1232.7	0.528873
1236.08	0.133677
1239.45	1.22552
1242.83	0.848239
1246.2	2.30684
1249.58	0.011542
1252.95	2.10283
1256.33	0.351866
1259.7	0.40049
1263.08	0.599789
1266.45	1.20567
1269.83	1.05399
1273.2	0.670753
1276.58	0.047853
1279.95	1.37448
1283.33	0.60369
