Measurement: Raman, 532 nm, unoriented, Raman Data Processed
Mineral: Willhendersonite
Rruff sample: R060508
Ideal chemistry: KCa(Si_3_Al_3_)O_12_5H_2_O
Locality: San Venzano Quarry, Terni, Umbria, central Italy
Source: Michael Scott
Description: Colorless tabular crystals forming a spherical aggregate
Measured chemistry: (K_0.98_Na_0.02_)_Σ=1_Ca_1.00_(Si_3.06_Al_2.93_Fe^3+^_0.01_)_Σ=6_O_12_·5.43H_2_ O ; H_2_O estimated by difference; Fe^3+^ by charge balance
Raman shift (cm-1)	intensity
156.315	0
159.208	0.932129
162.101	20.2158
164.993	50.6709
167.886	79.6252
170.779	135.288
173.672	186.619
176.564	224.71
179.457	222.127
182.35	220.125
185.242	208.716
188.135	192.483
191.028	167.868
193.92	143.871
196.813	88.0393
199.706	33.6875
202.599	4.35132
205.491	4.64062
208.384	18.2161
211.277	49.7014
214.169	83.4062
217.062	107.468
219.955	117.079
222.847	115.09
225.74	110.274
228.633	109.494
231.525	93.0171
234.418	96.1375
237.311	112.327
240.204	125.162
243.096	138.106
245.989	134.15
248.882	107.183
251.774	79.8084
254.667	45.1379
257.56	13.8503
260.452	3.02954
263.345	8.95557
266.238	5.45483
269.131	8.21948
272.023	47.5747
274.916	61.7151
277.809	74.0122
280.701	61.4114
283.594	39.6614
286.487	40.3892
289.38	57.0256
292.272	68.769
295.165	66.3074
298.058	82.6423
300.95	57.1323
303.843	58.5452
306.736	56.9355
309.628	85.5908
312.521	122.307
315.414	145.261
318.307	201.035
321.199	245.094
324.092	329.572
326.985	414.885
329.877	472.762
332.77	435.003
335.663	303.454
338.555	181.483
341.448	114.63
344.341	57.0747
347.233	8.0376
350.126	1.40478
353.019	1.80835
355.912	11.0823
358.804	34.6289
361.697	82.5408
364.59	126.128
367.482	114.291
370.375	87.0154
373.268	81.9553
376.161	107.471
379.053	134.477
381.946	180.269
384.839	186.191
387.731	171.304
390.624	167.517
393.517	201.433
396.409	246.493
399.302	275.717
402.195	299.331
405.087	325.424
407.98	337.431
410.873	278.787
413.766	172.172
416.658	88.9819
419.551	15.3513
422.444	8.36719
425.336	28.6785
428.229	15.3345
431.122	17.1731
434.014	36.4575
436.907	17.814
439.8	31.1311
442.693	64.0239
445.585	98.7122
448.478	160.96
451.371	186.081
454.263	172.761
457.156	142.987
460.049	106
462.942	117.337
465.834	140.169
468.727	187.356
471.62	197.071
474.512	165.139
477.405	114.837
480.298	87.8901
483.19	77.6516
486.083	95.5342
488.976	105.222
491.868	157.608
494.761	243.831
497.654	379.435
500.547	564.844
503.439	779.446
506.332	1023.77
509.225	1304.78
512.117	1505.17
515.01	1563.64
517.903	1408.48
520.795	1097.02
523.688	781.725
526.581	530.085
529.474	354.703
532.366	246.917
535.259	182.497
538.152	113.001
541.044	78.6372
543.937	47.824
546.83	35.6709
549.722	14.6968
552.615	3.92065
555.508	0.881104
558.401	3.84375
561.293	5.60864
564.186	16.042
567.079	21.656
569.971	21.9648
572.864	28.0425
575.757	39.6565
578.649	40.2583
581.542	38.1016
584.435	27.4243
587.328	35.8982
590.22	24.3735
593.113	5.97485
596.006	4.43262
598.898	2.45606
601.791	3.40723
604.684	12.6401
607.577	1.33838
610.469	3.57519
613.362	0.533936
616.255	1.80127
619.147	3.4419
622.04	5.84204
624.933	4.83423
627.825	5.49976
630.718	6.47607
633.611	12.5972
636.504	17.2063
639.396	22.8581
642.289	23.6228
645.182	31.783
648.074	27.7769
650.967	37.0491
653.86	28.9736
656.752	33.2561
659.645	21.2141
662.538	28.2375
665.431	18.8518
668.323	15.3328
671.216	7.20386
674.109	2.09033
677.001	3.52734
679.894	6.11035
682.787	6.43066
685.679	2.59619
688.572	22.3098
691.465	15.1623
694.357	12.3484
697.25	19.0664
700.143	35.0762
703.036	47.0359
705.928	69.3374
708.821	84.1226
711.714	82.3169
714.606	104.808
717.499	78.647
720.392	79.7551
723.284	54.6851
726.177	44.5928
729.07	34.0271
731.963	37.9648
734.855	35.2324
737.748	44.3708
740.641	25.6506
743.533	34.4099
746.426	33.4883
749.319	19.1477
752.212	34.9963
755.104	50.9089
757.997	44.4919
760.89	60.8821
763.782	66.1443
766.675	69.8354
769.568	48.0037
772.46	50.488
775.353	46.458
778.246	30.0137
781.139	24.3791
784.031	28.6118
786.924	16.6926
789.817	10.7224
792.709	0.108643
795.602	1.0144
798.495	3.39429
801.388	1.0542
804.28	2.57471
807.173	2.61768
810.066	2.96826
812.958	3.65576
815.851	0.118164
818.744	12.4854
821.636	18.0044
824.529	0.468262
827.422	6.91943
830.314	2.19556
833.207	0.946289
836.1	1.42651
838.993	7.88135
841.885	28.1914
844.778	39.1274
847.671	20.7725
850.563	25.0359
853.456	16.4629
856.349	28.9788
859.241	45.4092
862.134	35.469
865.027	23.7432
867.92	11.074
870.812	18.9917
873.705	21.9553
876.598	12.5549
879.49	10.9644
882.383	4.7041
885.276	1.83447
888.168	9.15088
891.061	2.20679
893.954	19.1057
896.847	6.01733
899.739	6.9519
902.632	14.9011
905.525	5.29614
908.417	2.58154
911.31	7.22827
914.203	17.6929
917.096	37.8059
919.988	36.3237
922.881	41.2151
925.774	47.1716
928.666	48.4067
931.559	79.7244
934.452	127.419
937.344	165.217
940.237	242.735
943.13	314.267
946.023	362.052
948.915	361.137
951.808	319.903
954.701	233.54
957.593	150.892
960.486	89.5271
963.379	51.9983
966.271	29.1523
969.164	42.3665
972.057	53.3584
974.949	55.3247
977.842	65.4192
980.735	59.8823
983.628	62.6523
986.52	41.9668
989.413	24.3335
992.306	12.2925
995.198	20.6562
998.091	18.1768
1000.98	34.8086
1003.88	32.4719
1006.77	19.4123
1009.66	2.57935
1012.55	8.19482
1015.45	17.9609
1018.34	19.2122
1021.23	16.5491
1024.12	13.2573
1027.02	31.551
1029.91	61.9109
1032.8	77.7739
1035.7	120.064
1038.59	157.088
1041.48	194.573
1044.37	213.762
1047.27	205.346
1050.16	184.696
1053.05	130.149
1055.94	75.6458
1058.84	44.8506
1061.73	14.0564
1064.62	3.23682
1067.52	1.76269
1070.41	2.1311
1073.3	6.32959
1076.19	2.63062
1079.09	3.1333
1081.98	8.09204
1084.87	17.9539
1087.77	25.3784
1090.66	27.0278
1093.55	32.9902
1096.44	28.7705
1099.34	39.5
1102.23	38.7068
1105.12	52.8577
1108.01	31.9595
1110.91	41.5344
1113.8	28.3696
1116.69	32.5059
1119.58	25.563
1122.48	33.4951
1125.37	11.0154
1128.26	16.7222
1131.15	1.04199
1134.05	2.68213
1136.94	2.61963
1139.83	11.9582
1142.73	7.53394
1145.62	6.51196
1148.51	5.57324
1151.4	4.28296
1154.3	19.1148
1157.19	31.165
1160.08	18.8355
1162.97	17.2173
1165.87	20.2459
1168.76	13.6209
1171.65	16.4924
1174.55	18.991
1177.44	24.0107
1180.33	21.9995
1183.22	24.6306
1186.12	35.5527
1189.01	21.4519
1191.9	32.4473
1194.8	27.6457
1197.69	12.8953
1200.58	15.8289
1203.47	15.019
1206.37	38.4915
1209.26	21.9761
1212.15	11.8674
1215.04	21.4194
1217.94	14.4985
1220.83	27.6345
1223.72	11.1924
1226.61	4.04639
1229.51	16.1152
1232.4	19.6692
1235.29	15.1299
1238.18	20.0881
1241.08	9.32617
1243.97	13.2293
1246.86	17.6623
1249.76	3.26733
1252.65	13.5727
1255.54	20.3655
1258.43	16.2705
1261.33	12.1394
1264.22	5.07764
1267.11	4.99854
1270.01	4.25342
1272.9	6.61572
1275.79	11.1548
1278.68	6.39307
1281.58	15.7576
1284.47	17.6802
1287.36	5.87305
1290.25	11.7793
1293.15	17.2905
1296.04	22.5955
1298.93	40.6394
1301.83	0
