Measurement: Raman, 780 nm, unoriented, Raman Data Processed
Mineral: Willemite
Rruff sample: R050652
Ideal chemistry: Zn_2_SiO_4_
Locality: Franklin Furnace, Sussex County, New Jersey, USA
Source: University of Arizona Mineral Museum
Description: Parallel aggregate of colorless acicular crystals
Measured chemistry: (Zn_1.99_Mn_0.01_)_Î£=2_Si_1.00_O_4_
Raman shift (cm-1)	intensity
149.397	0
152.29	2.65435
155.183	0.651958
158.075	1.18248
160.968	5.1903
163.861	2.98438
166.753	2.35505
169.646	3.30924
172.539	6.0844
175.431	16.5804
178.324	9.18831
181.217	3.41192
184.11	3.2145
187.002	6.92916
189.895	14.7198
192.788	21.1112
195.68	11.0771
198.573	8.41531
201.466	4.90395
204.358	2.74684
207.251	5.11782
210.144	2.83247
213.037	3.67434
215.929	7.58276
218.822	4.93898
221.715	3.04042
224.607	3.32492
227.5	1.23201
230.393	2.73568
233.286	4.93022
236.178	4.8704
239.071	1.26379
241.964	0.768398
244.856	2.30939
247.749	2.31287
250.642	2.20589
253.534	1.3886
256.427	0.449558
259.32	0.764896
262.212	1.08569
265.105	2.9629
267.998	4.03736
270.891	4.90548
273.783	6.35561
276.676	7.02047
279.569	13.3992
282.461	18.7242
285.354	17.895
288.247	11.5807
291.139	8.38604
294.032	9.75574
296.925	11.7404
299.817	13.5314
302.71	6.91021
305.603	2.709
308.496	2.66154
311.388	0.291809
314.281	0.665356
317.174	1.38419
320.066	0.259796
322.959	0.588272
325.852	0.242798
328.745	0.587341
331.637	2.74641
334.53	1.36408
337.423	0.73563
340.315	0.597656
343.208	0.243065
346.101	2.06856
348.993	3.08874
351.886	2.36095
354.779	3.92619
357.671	4.13192
360.564	6.25191
363.457	7.69777
366.35	8.52375
369.242	12.7717
372.135	15.9223
375.028	18.6653
377.92	24.9157
380.813	29.519
383.706	29.4633
386.599	23.8428
389.491	23.2763
392.384	21.8201
395.277	25.3796
398.169	25.8538
401.062	21.9121
403.955	13.2399
406.847	8.76914
409.74	5.76164
412.633	4.52468
415.526	3.82549
418.418	2.4467
421.311	3.179
424.204	3.27885
427.096	2.98129
429.989	1.01994
432.882	3.01562
435.774	0.146397
438.667	0.810886
441.56	0.895763
444.452	0.171211
447.345	0.399702
450.238	1.46679
453.13	2.38231
456.023	2.72605
458.916	2.36983
461.809	4.67697
464.701	3.97353
467.594	3.75229
470.487	4.05407
473.379	2.99817
476.272	5.59539
479.165	5.88958
482.058	7.11875
484.95	6.23701
487.843	4.83861
490.736	5.52329
493.628	3.64977
496.521	0.187984
499.414	1.71541
502.306	0.893044
505.199	0.825638
508.092	1.7197
510.985	0.829628
513.877	0.356352
516.77	1.75437
519.663	0.556755
522.555	0.187687
525.448	1.93984
528.341	0.835629
531.233	1.37207
534.126	4.17627
537.019	5.1565
539.912	3.56723
542.804	7.77367
545.697	8.12468
548.59	12.4198
551.482	13.3241
554.375	10.1101
557.268	4.28794
560.16	2.66704
563.053	2.50883
565.946	1.89578
568.838	0.252863
571.731	0.629135
574.624	2.20084
577.516	1.77191
580.409	2.08888
583.302	1.91702
586.195	2.89838
589.087	3.34496
591.98	5.58828
594.873	5.42413
597.765	3.19907
600.658	5.03569
603.551	3.21507
606.443	2.91239
609.336	2.65472
612.229	2.008
615.122	3.50571
618.014	5.66525
620.907	4.16853
623.8	6.24016
626.692	3.41023
629.585	0.259562
632.478	0.487066
635.37	0.134258
638.263	1.10772
641.156	0.37195
644.049	0.113419
646.941	1.30159
649.834	0.394857
652.727	1.87594
655.619	2.13953
658.512	2.17812
661.405	1.99385
664.298	1.48081
667.19	1.44279
670.083	3.35954
672.976	0.975262
675.868	0.944164
678.761	3.92152
681.654	1.07286
684.546	1.9258
687.439	2.33029
690.332	0.437437
693.225	0.745461
696.117	0.879232
699.01	1.70391
701.903	2.43203
704.795	2.86118
707.688	1.17421
710.581	2.65707
713.473	1.85041
716.366	2.44881
719.259	2.41594
722.151	2.88166
725.044	2.99973
727.937	2.53498
730.83	2.99345
733.722	2.31185
736.615	2.62558
739.508	2.6063
742.4	0.427402
745.293	2.41872
748.186	0.243563
751.078	1.11557
753.971	1.39059
756.864	1.78733
759.756	2.61367
762.649	3.30307
765.542	3.32733
768.435	2.87303
771.327	1.70541
774.22	0.124434
777.113	2.35886
780.005	2.39165
782.898	0.482069
785.791	1.63703
788.683	1.52804
791.576	1.19282
794.469	0.93605
797.362	2.08228
800.254	1.09399
803.147	1.37447
806.04	0.348616
808.932	0.887745
811.825	1.15651
814.718	0.363478
817.611	0.702972
820.503	0.667183
823.396	0.123806
826.289	0.347811
829.181	0.676723
832.074	0.338297
834.967	1.07297
837.859	4.22815
840.752	4.65669
843.645	6.30856
846.538	9.07079
849.43	16.0161
852.323	25.5973
855.216	44.6057
858.108	68.3612
861.001	102.774
863.894	150.459
866.786	223.891
869.679	307.589
872.572	301.438
875.464	202.2
878.357	122.136
881.25	80.0148
884.143	56.4907
887.035	43.1769
889.928	32.9368
892.821	20.0914
895.713	22.0546
898.606	23.7638
901.499	28.0954
904.391	37.646
907.284	53.7022
910.177	44.1212
913.069	16.5873
915.962	6.37825
918.855	3.15179
921.748	1.29724
924.64	0.55261
927.533	1.1736
930.426	0.128891
933.318	1.47421
936.211	3.55833
939.104	6.39946
941.996	11.4981
944.889	18.2723
947.782	20.0131
950.675	18.4273
953.567	17.5622
956.46	12.6484
959.353	9.38872
962.245	5.3499
965.138	3.61556
968.031	1.76224
970.923	1.94445
973.816	2.44787
976.709	0.431541
979.602	0.568167
982.494	1.04842
985.387	0.870043
988.28	0.307238
991.172	0.376263
994.065	2.66783
996.958	0.339518
999.851	2.37635
1002.74	2.77165
1005.64	1.6045
1008.53	1.21581
1011.42	0.492961
1014.31	0.582304
1017.21	1.13595
1020.1	2.74654
1022.99	2.19862
1025.88	1.34013
1028.78	2.27485
1031.67	2.33998
1034.56	2.0061
1037.46	2.74621
1040.35	0.54938
1043.24	0.640531
1046.13	2.87167
1049.03	2.04901
1051.92	3.16418
1054.81	1.98816
1057.7	0.765182
1060.6	1.95124
1063.49	2.66637
1066.38	1.88438
1069.28	2.38697
1072.17	2.15354
1075.06	0.868553
1077.95	0.302056
1080.85	1.32477
1083.74	2.2296
1086.63	1.17035
1089.52	0.936718
1092.42	2.15368
1095.31	2.76551
1098.2	1.85736
1101.1	0.61058
1103.99	2.67806
1106.88	0.977392
1109.77	0.69244
1112.67	1.33891
1115.56	1.00767
1118.45	0.209655
1121.34	1.93784
1124.24	0.01322
1127.13	0.502708
1130.02	0.735251
1132.91	0.881758
1135.81	0.891186
1138.7	1.25062
1141.59	1.05177
1144.48	0.929731
1147.38	0.008034
1150.27	2.42635
1153.16	2.23599
1156.06	0.737563
1158.95	1.44936
1161.84	2.16557
1164.73	1.81062
1167.63	3.97709
1170.52	3.63048
1173.41	2.27758
1176.31	1.05534
1179.2	1.956
1182.09	2.60859
1184.98	0.336236
1187.88	2.31827
1190.77	2.20033
1193.66	2.95587
1196.55	2.59283
1199.45	1.52272
1202.34	0.769561
1205.23	3.11675
1208.12	3.62465
1211.02	1.65498
1213.91	1.00563
1216.8	1.54271
1219.7	2.87011
1222.59	1.28988
1225.48	2.7618
1228.37	1.79517
1231.27	1.2271
1234.16	1.22289
1237.05	0.55347
1239.94	3.76035
1242.84	1.33677
1245.73	0.837706
1248.62	1.41111
1251.52	2.41207
1254.41	0.587608
1257.3	1.33853
1260.19	2.89624
1263.09	1.0662
1265.98	1.19231
1268.87	2.50552
1271.76	1.03441
1274.66	2.07249
1277.55	1.37561
1280.44	0.563378
1283.34	1.71378
1286.23	0
