Measurement: Raman, 785 nm, unoriented, Raman Data Processed
Mineral: Willemite
Rruff sample: R060875
Ideal chemistry: Zn_2_SiO_4_
Locality: Franklin, Sussex County, New Jersey, USA
Source: Marcus Origlieri
Description: Yellowish brown massive
Measured chemistry: (Zn_1.76_Mn_0.23_Mg_0.01_)_Î£=2_Si_1.00_O_4_
Raman shift (cm-1)	intensity
95.4931	0
98.8679	2.30466
102.243	19.5554
105.618	6.9182
108.992	7.14784
112.367	16.338
115.742	74.1835
119.117	39.5355
122.492	27.6908
125.867	180.159
129.241	457.988
132.616	645.761
135.991	296.601
139.366	252.694
142.741	285.594
146.115	388.666
149.49	444.668
152.865	317.528
156.24	250.316
159.615	260.615
162.989	302.003
166.364	238.918
169.739	225.136
173.114	209.805
176.489	218.956
179.863	135.78
183.238	148.306
186.613	230.871
189.988	338.986
193.363	380.089
196.738	223.201
200.112	144.806
203.487	119.291
206.862	103.123
210.237	70.2866
213.612	88.1511
216.987	69.6162
220.361	63.4384
223.736	67.6942
227.111	57.5278
230.486	60.1812
233.861	29.4387
237.235	43.3141
240.61	5.58815
243.985	12.4282
247.36	16.1574
250.735	5.96144
254.109	4.98624
257.484	23.7919
260.859	40.9363
264.234	30.0102
267.609	53.8231
270.984	83.7783
274.358	95.0532
277.733	144.876
281.108	251.005
284.483	254.226
287.858	123.088
291.233	95.872
294.607	120.142
297.982	153.189
301.357	106.325
304.732	39.9771
308.107	25.6301
311.481	13.1083
314.856	7.8381
318.231	6.36989
321.606	5.89659
324.981	2.24745
328.356	15.7701
331.73	18.282
335.105	9.92657
338.48	19.8965
341.855	14.5317
345.23	16.629
348.604	15.7474
351.979	23.3993
355.354	34.8979
358.729	48.6444
362.104	51.6009
365.478	88.4452
368.853	119.215
372.228	190.606
375.603	259.821
378.978	363.201
382.353	414.228
385.727	445.241
389.102	423.782
392.477	399.95
395.852	416.612
399.227	384.817
402.601	260.462
405.976	168.291
409.351	102.212
412.726	68.8357
416.101	45.0594
419.476	30.5672
422.85	17.3755
426.225	11.161
429.6	9.38164
432.975	11.2131
436.35	5.73555
439.724	8.59514
443.099	8.78819
446.474	0.761719
449.849	0.567505
453.224	25.2342
456.599	36.0512
459.973	39.5654
463.348	61.2422
466.723	58.4395
470.098	82.0065
473.473	91.541
476.848	125.972
480.222	139.881
483.597	122.418
486.972	106.785
490.347	66.5136
493.722	63.4802
497.096	43.0738
500.471	27.8
503.846	34.1838
507.221	31.1395
510.596	24.0149
513.971	0.873749
517.345	0.986862
520.72	7.15276
524.095	0.240402
527.47	5.12686
530.845	11.8995
534.219	17.9205
537.594	64.4622
540.969	150.785
544.344	236.741
547.719	247.711
551.093	166.705
554.468	74.3028
557.843	57.3512
561.218	56.8757
564.593	78.6832
567.967	67.3306
571.342	80.1352
574.717	82.067
578.092	90.7684
581.467	96.5146
584.842	102.95
588.216	150.384
591.591	151.31
594.966	171.639
598.341	177.131
601.716	156.652
605.091	144.456
608.465	134.849
611.84	104.457
615.215	99.3277
618.59	94.2504
621.965	76.2635
625.34	50.9363
628.714	34.7608
632.089	13.0311
635.464	5.38821
638.839	10.247
642.214	0.140579
645.588	8.18399
648.963	4.10327
652.338	16.3196
655.713	11.441
659.088	13.0172
662.462	0.226242
665.837	1.27396
669.212	1.30208
672.587	0.193802
675.962	6.39693
679.337	16.9397
682.711	12.3582
686.086	7.94223
689.461	18.215
692.836	12.5353
696.211	11.274
699.585	11.0677
702.96	21.9595
706.335	25.2288
709.71	21.9734
713.085	16.5162
716.46	20.7318
719.834	25.7869
723.209	29.4101
726.584	13.7464
729.959	20.6322
733.334	10.5274
736.708	19.4736
740.083	8.40031
743.458	29.5988
746.833	21.2986
750.208	32.9108
753.582	42.3725
756.957	28.7218
760.332	36.4248
763.707	46.3893
767.082	43.6728
770.457	39.255
773.831	57.4329
777.206	28.841
780.581	53.4223
783.956	34.5767
787.331	46.2144
790.706	47.6855
794.08	37.9786
797.455	20.1685
800.83	13.5003
804.205	3.45985
807.58	3.70604
810.954	1.02928
814.329	4.88847
817.704	4.51686
821.079	16.4966
824.454	7.06541
827.828	0.233856
831.203	15.3665
834.578	18.0167
837.953	49.6688
841.328	76.9218
844.703	135.381
848.077	237.967
851.452	388.363
854.827	691.383
858.202	1206.94
861.577	2030.18
864.952	3369.22
868.326	4868.47
871.701	5630.22
875.076	4636.35
878.451	2696.28
881.826	1462.7
885.2	856.864
888.575	530.862
891.95	332.415
895.325	255.468
898.7	242.197
902.074	320.511
905.449	432.969
908.824	442.822
912.199	269.206
915.574	127.654
918.949	75.5797
922.323	67.6801
925.698	48.0978
929.073	18.9792
932.448	26.2613
935.823	31.3077
939.197	58.0471
942.572	106.186
945.947	180.421
949.322	206.138
952.697	260.729
956.072	272.552
959.446	195.58
962.821	109.332
966.196	49.8636
969.571	39.868
972.946	30.468
976.321	24.3759
979.695	10.0239
983.07	4.65562
986.445	5.07816
989.82	2.10794
993.195	12.8827
996.569	7.29336
999.944	0.062103
1003.32	3.26526
1006.69	8.74105
1010.07	2.3054
1013.44	16.1264
1016.82	3.15324
1020.19	1.35078
1023.57	3.79835
1026.94	2.42595
1030.32	25.0466
1033.69	2.23678
1037.07	28.7827
1040.44	21.1609
1043.82	29.8803
1047.19	34.0109
1050.57	28.0227
1053.94	15.3611
1057.32	13.1756
1060.69	9.51466
1064.07	24.7367
1067.44	26.248
1070.82	25.3327
1074.19	27.0454
1077.57	11.1132
1080.94	24.196
1084.32	29.884
1087.69	28.0651
1091.06	28.3159
1094.44	21.7354
1097.81	29.4747
1101.19	27.5387
1104.56	25.6412
1107.94	14.3416
1111.31	13.4684
1114.69	3.33632
1118.06	17.502
1121.44	1.9257
1124.81	1.87687
1128.19	3.26408
1131.56	5.08031
1134.94	16.6344
1138.31	24.519
1141.69	15.3301
1145.06	20.6762
1148.44	15.0343
1151.81	29.0881
1155.19	20.2095
1158.56	32.1902
1161.93	32.0429
1165.31	23.9573
1168.68	27.7632
1172.06	26.1767
1175.43	43.2553
1178.81	28.6234
1182.18	22.709
1185.56	19.121
1188.93	25.7851
1192.31	44.9724
1195.68	23.0133
1199.06	25.5123
1202.43	18.7807
1205.81	13.5872
1209.18	26.0331
1212.56	23.8883
1215.93	35.2364
1219.31	12.0316
1222.68	26.468
1226.06	19.3001
1229.43	19.9966
1232.81	15.0093
1236.18	3.64133
1239.56	1.84286
1242.93	24.4531
1246.31	20.3737
1249.68	22.4636
1253.06	22.5472
1256.43	0.957466
1259.81	6.84563
1263.18	1.52115
