Measurement: Raman, 532 nm, unoriented, Raman Data Processed
Mineral: Wiluite
Rruff sample: R060513
Ideal chemistry: Ca_19_(Al,Mg)_13_(B,[box],Al)_5_(SiO_4_)_10_(Si_2_O_7_)_4_(O,OH)_10_
Locality: Wilui River, Sakha Republic, Russian Federation
Source: Michael Scott
Description: Dark green tetragonal prismatic
Measured chemistry: Ca_19.00_(Al_7.90_Mg_4.67_Ti_0.43_)_Σ=13_(B_3.00_[box]_2.00_)_Σ=5_Si_18.00_O_68_(O_7.76_(OH)_2.24_)_Σ=10_ ; B not measured but estimated by charge balance.
Raman shift (cm-1)	intensity
136.245	0
139.62	13.7196
142.995	77.8597
146.369	143.339
149.744	191.826
153.119	190.852
156.494	173.723
159.869	171.922
163.244	200.141
166.618	233.212
169.993	226.729
173.368	187.011
176.743	143.72
180.118	102.826
183.493	70.4506
186.867	34.5109
190.242	12.9604
193.617	1.58081
196.992	9.37439
200.367	9.89441
203.741	11.1936
207.116	34.6163
210.491	56.3321
213.866	91.8516
217.241	109.428
220.615	94.7804
223.99	63.4216
227.365	45.3738
230.74	35.9231
234.115	45.5902
237.489	66.1722
240.864	85.3506
244.239	131.712
247.614	154.116
250.989	156.044
254.364	109.272
257.738	45.2319
261.113	0.374512
264.488	22.7048
267.863	8.75684
271.238	7.65039
274.613	7.77026
277.987	25.0503
281.362	53.2798
284.737	54.7556
288.112	83.9126
291.487	98.5154
294.861	113.192
298.236	119.119
301.611	118.294
304.986	118.24
308.361	108.816
311.736	94.8779
315.11	91.6929
318.485	88.8147
321.86	68.645
325.235	64.5898
328.61	74.1987
331.984	59.8801
335.359	56.928
338.734	64.5889
342.109	83.2839
345.484	92.2505
348.858	111.826
352.233	124.132
355.608	141.018
358.983	146.523
362.358	161.429
365.733	179.967
369.107	180.379
372.482	171.154
375.857	153.543
379.232	146.62
382.607	143.032
385.981	156.579
389.356	188.858
392.731	236.563
396.106	279.164
399.481	324.247
402.856	360.635
406.23	376.448
409.605	364.07
412.98	333.998
416.355	277.941
419.73	229.569
423.104	171.85
426.479	109.793
429.854	77.8809
433.229	47.7048
436.604	31.5861
439.978	14.835
443.353	2.60913
446.728	12.7054
450.103	14.3302
453.478	11.547
456.853	21.5663
460.227	11.598
463.602	0.377441
466.977	18.2781
470.352	25.4802
473.727	39.3169
477.101	44.4276
480.476	57.4725
483.851	56.7427
487.226	60.9015
490.601	81.4369
493.976	99.1183
497.35	126.805
500.725	141.915
504.1	153.818
507.475	163.437
510.85	165.319
514.224	169.37
517.599	146.061
520.974	130.94
524.349	129.898
527.724	118.802
531.098	109.27
534.473	119.069
537.848	116.513
541.223	127.173
544.598	124.121
547.973	124.196
551.347	131.197
554.722	123.294
558.097	102.521
561.472	78.4711
564.847	51.2263
568.221	38.0867
571.596	30.6689
574.971	26.5013
578.346	35.8278
581.721	48.6333
585.096	59.8758
588.47	97.7247
591.845	132.578
595.22	184.45
598.595	218.583
601.97	246.885
605.344	253.571
608.719	261.903
612.094	244.215
615.469	232.465
618.844	219.066
622.218	193.114
625.593	183.313
628.968	163.539
632.343	163.34
635.718	158.826
639.093	161.331
642.467	75.313
645.842	26.1148
649.217	1.68506
652.592	22.3206
655.967	23.3709
659.341	10.6989
662.716	14.6184
666.091	45.9579
669.466	85.4794
672.841	124.463
676.216	184.612
679.59	264.6
682.965	377.103
686.34	533.258
689.715	699.874
693.09	922.829
696.465	1094.84
699.839	1038.43
703.214	765.266
706.589	497.397
709.964	292.452
713.339	155.604
716.713	82.3054
720.088	56.7634
723.463	70.598
726.838	113.752
730.213	173.272
733.587	247.365
736.962	302.929
740.337	336.053
743.712	358.919
747.087	364.324
750.462	335.709
753.836	307.84
757.211	255.664
760.586	207.151
763.961	153.461
767.336	108.993
770.71	67.9635
774.085	42.7723
777.46	15.816
780.835	4.54053
784.21	9.2832
787.585	18.3345
790.959	19.3909
794.334	15.4229
797.709	11.9377
801.084	5.1554
804.459	1.85828
807.833	15.87
811.208	9.38892
814.583	17.4067
817.958	32.4924
821.333	51.6047
824.707	63.9314
828.082	76.2195
831.457	97.3303
834.832	116.91
838.207	160.968
841.582	191.295
844.956	195.46
848.331	194.957
851.706	198.104
855.081	215.08
858.456	210.402
861.83	212.433
865.205	234.718
868.58	245.198
871.955	246.189
875.33	247.249
878.705	238.837
882.079	220.543
885.454	179.52
888.829	159.308
892.204	119.165
895.579	99.895
898.953	89.5579
902.328	106.546
905.703	135.003
909.078	191.291
912.453	254.386
915.827	340.31
919.202	427.506
922.577	506.894
925.952	594.154
929.327	692.942
932.702	776.082
936.076	817.584
939.451	822.51
942.826	792.496
946.201	742.361
949.576	677.971
952.951	611.962
956.325	545.063
959.7	469.251
963.075	399.876
966.45	313.332
969.825	254.731
973.199	195.639
976.574	158.227
979.949	115.204
983.324	71.4187
986.699	45.8606
990.073	16.9206
993.448	17.2539
996.823	20.1942
1000.2	15.9542
1003.57	27.0806
1006.95	10.2853
1010.32	1.375
1013.7	21.4952
1017.07	42.729
1020.45	61.673
1023.82	87.6921
1027.2	99.9534
1030.57	110.561
1033.95	124.685
1037.32	135.295
1040.7	119.294
1044.07	107.295
1047.44	78.052
1050.82	68.0195
1054.19	54.0915
1057.57	31.5575
1060.94	15.106
1064.32	9.40979
1067.69	4.36536
1071.07	7.83972
1074.44	7.92957
1077.82	21.6477
1081.19	33.3164
1084.57	49.1102
1087.94	47.699
1091.32	61.8286
1094.69	68.6548
1098.07	97.4534
1101.44	138.221
1104.82	170.491
1108.19	184.963
1111.57	189.329
1114.94	167.88
1118.32	136.905
1121.69	122.436
1125.07	103.154
1128.44	86.8821
1131.82	72.0195
1135.19	65.0323
1138.57	55.2526
1141.94	52.9738
1145.32	43.3009
1148.69	37.9449
1152.07	29.3752
1155.44	26.0456
1158.81	18.7793
1162.19	19.0004
1165.56	21.2866
1168.94	18.6255
1172.31	9.09973
1175.69	9.70715
1179.06	16.738
1182.44	39.1882
1185.81	40.8156
1189.19	30.84
1192.56	15.241
1195.94	1.46936
1199.31	0.480713
1202.69	8.71472
1206.06	3.21118
1209.44	12.6787
1212.81	7.90503
1216.19	17.0579
1219.56	17.0536
1222.94	20.6193
1226.31	19.0064
1229.68	16.0183
1233.06	23.3061
1236.43	14.9717
1239.81	13.3178
1243.18	13.192
1246.56	18.1492
1249.93	17.4166
1253.31	14.2474
1256.68	5.03943
1260.06	4.27844
1263.43	7.10132
1266.81	2.06641
1270.18	3.86414
1273.56	2.51978
1276.93	7.97717
1280.31	8.40283
1283.68	6.17822
1287.06	8.89917
1290.43	6.3064
1293.81	2.00354
1297.18	5.93408
1300.56	9.74915
