Measurement: Raman, 532 nm, unoriented, Raman Data Processed
Mineral: Winchite
Rruff sample: R060704
Ideal chemistry: [box]NaCa(Mg_4_Al)Si_8_O_22_(OH)_2_
Locality: Tirodi mines, Central Provinces, India
Source: Michael Scott
Description: Matted group of tan colored bladed crystals
Measured chemistry: gray phase: ([box]_0.85_Na_0.09_K_0.06_)_Σ=1_(Ca_1.36_Na_0.64_)_Σ=2_(Mg_4.12_Fe^3+^_0.38_Mn_0.23_Fe^2+^_0.16_Al_0.11_)_Σ=5_Si_8.00_O_22_((OH)_1.90_F_0.10_)_Σ=2_ ; bright phase is ferriwinchite
Raman shift (cm-1)	intensity
208.304	0
211.197	73.7422
214.089	351.504
216.982	807.266
219.875	1412.04
222.767	1722.51
225.66	2324.53
228.553	2367.84
231.445	2272.37
234.338	1732.43
237.231	657.641
240.124	172.738
243.016	134.289
245.909	563.926
248.802	898.098
251.694	1188.94
254.587	1062.93
257.48	482.406
260.372	216.856
263.265	488.043
266.158	393.652
269.051	243.082
271.943	24.2109
274.836	225.336
277.729	162.332
280.621	15.5312
283.514	260.172
286.407	183.902
289.299	421.375
292.192	1025.36
295.085	1388.34
297.978	2000.77
300.87	2145.77
303.763	1225.54
306.656	884.223
309.548	660.176
312.441	830.719
315.334	958.519
318.226	1136.36
321.119	1237.68
324.012	858.531
326.905	591.492
329.797	808.66
332.69	1284.31
335.583	1541.03
338.475	1928.97
341.368	1988.59
344.261	1745.89
347.153	1866.98
350.046	1735.13
352.939	1155.99
355.832	556.641
358.724	683.336
361.617	1113.86
364.51	2191.13
367.402	3158.61
370.295	4610.82
373.188	5086.2
376.08	3932.93
378.973	2065.09
381.866	1093.21
384.759	969.062
387.651	1506.29
390.544	1976.5
393.437	1927.83
396.329	1344.2
399.222	738.586
402.115	544.324
405.007	683.016
407.9	1025.52
410.793	1437.18
413.685	1876.23
416.578	1594.31
419.471	1116.53
422.364	611.969
425.256	501.227
428.149	313.055
431.042	607.953
433.934	562.922
436.827	511.648
439.72	105.484
442.612	106.414
445.505	37.3359
448.398	168.656
451.29	220.945
454.183	117.531
457.076	93.6797
459.969	12.7812
462.861	96.9609
465.754	367.031
468.647	512.109
471.539	886.344
474.432	1184.81
477.325	922.789
480.217	854.203
483.11	856.875
486.003	932.891
488.896	692.188
491.788	280.727
494.681	107.156
497.574	93.0391
500.466	223.734
503.359	300.703
506.252	615.133
509.145	854.922
512.037	1279.55
514.93	1811.06
517.823	2197.86
520.715	2710.57
523.608	2565.8
526.501	2662.31
529.393	3386.17
532.286	4101.02
535.179	4870.44
538.071	5725.12
540.964	6407.29
543.857	6208.16
546.75	4595.91
549.642	3121.72
552.535	2084.91
555.428	1308.99
558.32	933.148
561.213	750.828
564.106	766.953
566.998	647.141
569.891	663.023
572.784	729.984
575.677	631.898
578.569	497.258
581.462	750.586
584.355	953.875
587.247	1212.81
590.14	993.312
593.033	439.609
595.925	85.5078
598.818	51.0469
601.711	170.094
604.604	31.7188
607.496	123.609
610.389	234.211
613.282	11.5312
616.174	169.742
619.067	329.859
621.96	386.102
624.852	289.273
627.745	263.297
630.638	156.242
633.531	58.7266
636.423	44.8906
639.316	20.1641
642.209	152.289
645.101	515.766
647.994	941.672
650.887	1771.14
653.779	2249.04
656.672	2672.91
659.565	3506.44
662.458	4506.33
665.35	6181.26
668.243	8269.83
671.135	10252.4
674.028	10831.3
676.921	9405.02
679.814	6815.26
682.706	4776.49
685.599	3331.32
688.492	2297.57
691.384	1718.72
694.277	1201.26
697.17	772.562
700.062	363.75
702.955	220.812
705.848	87.6953
708.741	21.2891
711.633	57.9844
714.526	50.6797
717.419	131.695
720.311	154.492
723.204	145.312
726.097	273.008
728.99	329.594
731.882	392.43
734.775	203.977
737.667	430.562
740.56	198.75
743.453	640.836
746.346	1118.09
749.238	1189.27
752.131	649.148
755.024	555.344
757.916	459.703
760.809	94.7031
763.702	69.8516
766.594	112.758
769.487	634.82
772.38	941.258
775.273	395.656
778.165	179.453
781.058	169.719
783.951	307.797
786.843	205.195
789.736	328.719
792.629	559.039
795.521	673.57
798.414	699.266
801.307	384.375
804.2	323.188
807.092	137.625
809.985	63.2422
812.878	25.5938
815.77	187.844
818.663	61.6875
821.556	51.9609
824.448	57.5859
827.341	282.164
830.234	347.359
833.127	213.633
836.019	34.2422
838.912	71.5391
841.805	51.3203
844.697	238.852
847.59	303.961
850.483	177.172
853.375	171.719
856.268	104.125
859.161	22.25
862.054	401.633
864.946	413.078
867.839	468.586
870.732	78.7031
873.624	442.258
876.517	480.828
879.41	1023.34
882.302	1171.28
885.195	1584.94
888.088	2059.58
890.981	2290.35
893.873	3172
896.766	3428.05
899.659	2981.13
902.551	2361.6
905.444	2084.68
908.337	1603.93
911.229	963.008
914.122	568.477
917.015	297.945
919.907	123.359
922.8	572.031
925.693	826.531
928.586	842.633
931.478	801.102
934.371	298.367
937.264	397.578
940.156	339.156
943.049	296.57
945.942	427.578
948.834	645.648
951.727	1210.52
954.62	1913.48
957.513	3147.4
960.405	4552.71
963.298	6611.69
966.191	8775.39
969.083	11062
971.976	12951.1
974.869	11760.1
977.761	8892.94
980.654	5790.4
983.547	3810.41
986.44	2624.63
989.332	1549.33
992.225	1110.16
995.118	945.078
998.01	835.367
1000.9	471.305
1003.8	260.359
1006.69	300.461
1009.58	227.367
1012.47	53.5625
1015.37	62.0234
1018.26	269.469
1021.15	161.539
1024.05	494.953
1026.94	845.031
1029.83	703.703
1032.72	554.32
1035.62	425.109
1038.51	889.445
1041.4	897.609
1044.29	786.156
1047.19	732.023
1050.08	1473.88
1052.97	1944.37
1055.86	2582.34
1058.76	2384.36
1061.65	1432.57
1064.54	1001.45
1067.43	752.867
1070.33	347.133
1073.22	520.039
1076.11	411.898
1079.01	166.211
1081.9	56.1016
1084.79	395.078
1087.68	492.422
1090.58	284.883
1093.47	671.414
1096.36	828.25
1099.26	1077.79
1102.15	821.727
1105.04	711.812
1107.93	722.117
1110.83	453.438
1113.72	219.289
1116.61	423.617
1119.5	72.8281
1122.4	290.875
1125.29	152.797
1128.18	642.094
1131.07	788.023
1133.97	1069.55
1136.86	785.375
1139.75	567.156
1142.64	647.617
1145.54	100.906
1148.43	36.6797
1151.32	186.125
1154.22	637.016
1157.11	660.859
1160	599.031
1162.89	501.68
1165.79	41.9141
1168.68	40.3984
1171.57	273.695
1174.46	655.828
1177.36	908.188
1180.25	748.266
1183.14	1266.84
1186.04	824.938
1188.93	486.867
1191.82	237.633
1194.71	254.172
1197.61	288.094
1200.5	541.32
1203.39	364.078
1206.29	492.016
1209.18	702.305
1212.07	957.234
1214.96	960.352
1217.86	777.969
1220.75	525.172
1223.64	506.977
1226.53	769.242
1229.43	726.508
1232.32	737.117
1235.21	1078.51
1238.1	1099.83
1241	813.172
1243.89	673.391
1246.78	1353.61
1249.67	1166.79
1252.57	846.281
1255.46	571.625
1258.35	930.023
1261.25	433.367
1264.14	142.852
1267.03	110.688
1269.92	824.914
1272.82	1115.81
1275.71	1441.21
1278.6	943.258
1281.49	518.758
1284.39	449.914
1287.28	364.844
1290.17	109.875
1293.07	106.664
