Measurement: Raman, 785 nm, unoriented, Raman Data Processed
Mineral: Winchite
Rruff sample: R061124
Ideal chemistry: [box]NaCa(Mg_4_Al)Si_8_O_22_(OH)_2_
Locality: Iratuyama, Ehime Prefecture, Japan
Source: Michael Scott
Description: Dark green prismatic crystals frozen in a matrix of calcite and mica
Measured chemistry: ([box]_0.65_Na_0.31_K_0.04_)_Σ=1_Na_1.00_(Ca_0.97_Mn_0.03_)_Σ=1_[(Mg_3.36_Fe^2+^_0.64_)_Σ=4_(Al_0.55_Fe^3+^_0.35_)_Σ=1_](Si_7.65_Al_0.35_)_Σ=8_O_22_((OH)_1.87_F_0.13_)_Σ=2_
Raman shift (cm-1)	intensity
194.911	15.0149
197.804	12.4712
200.696	4.56104
203.589	62.4329
206.482	92.0879
209.375	138.628
212.267	209.915
215.16	280.471
218.053	346.301
220.945	420.073
223.838	423.717
226.731	366.062
229.624	300.457
232.516	219.323
235.409	136.715
238.302	95.1592
241.194	55.0259
244.087	51.9221
246.98	82.1528
249.872	97.9956
252.765	169.39
255.658	163.811
258.55	102.862
261.443	35.8801
264.336	24.1003
267.228	13.9211
270.121	53.9853
273.014	39.5342
275.907	14.4026
278.799	32.1304
281.692	21.9841
284.585	47.6724
287.477	30.5269
290.37	153.502
293.263	142.27
296.156	225.31
299.048	231.556
301.941	228.902
304.834	254.676
307.726	196.259
310.619	176.92
313.512	231.227
316.404	195.413
319.297	172.636
322.19	166.956
325.083	168.958
327.975	238.359
330.868	219.933
333.761	190.407
336.653	148.856
339.546	147.429
342.439	92.4487
345.331	52.7095
348.224	31.2996
351.117	41.5898
354.01	62.8621
356.902	82.7107
359.795	129.024
362.688	245.965
365.58	307.804
368.473	421.049
371.366	466.705
374.258	429.423
377.151	381.401
380.044	370.32
382.937	351.629
385.829	360.678
388.722	335.441
391.615	349.937
394.507	258.73
397.4	210.195
400.293	164.109
403.185	103.794
406.078	142.94
408.971	188.427
411.863	203.93
414.756	202.287
417.649	159.249
420.542	134.347
423.434	86.1599
426.327	8.50903
429.22	8.50342
432.112	32.8035
435.005	52.5818
437.898	56.6201
440.791	24.1436
443.683	3.01831
446.576	18.6145
449.469	25.3328
452.361	20.0212
455.254	8.65356
458.147	5.37988
461.039	64.8789
463.932	19.5483
466.825	19.0847
469.717	35.5244
472.61	38.7393
475.503	53.8628
478.396	0.334961
481.288	19.4294
484.181	5.82947
487.074	3.84363
489.966	0.397461
492.859	7.65405
495.752	15.9019
498.644	100.412
501.537	77.2548
504.43	109.909
507.323	174.759
510.215	231.932
513.108	300.356
516.001	380.387
518.893	424.458
521.786	475.26
524.679	523.34
527.572	590.869
530.464	677.792
533.357	750.011
536.25	900.5
539.142	924.622
542.035	903.684
544.928	860.4
547.82	782.5
550.713	723.161
553.606	658.435
556.499	631.053
559.391	561.115
562.284	538.088
565.177	490.22
568.069	449.193
570.962	442.307
573.855	376.517
576.747	348.141
579.64	309.896
582.533	249.018
585.425	211.508
588.318	152.2
591.211	101.869
594.104	75.2241
596.996	48.2283
599.889	1.54822
602.782	1.07312
605.674	30.0964
608.567	27.5931
611.46	0.27478
614.352	38.5476
617.245	26.6787
620.138	12.876
623.03	2.41797
625.923	8.92993
628.816	18.9834
631.709	6.45435
634.601	80.0823
637.494	43.5002
640.387	95.2749
643.279	122.263
646.172	168.362
649.065	238.439
651.957	291.726
654.85	405.495
657.743	550.105
660.636	745.964
663.528	1006.68
666.421	1414.11
669.314	1686.53
672.206	1776.52
675.099	1498.68
677.992	1067.21
680.885	676.137
683.777	438.994
686.67	301.123
689.563	222.985
692.455	169.495
695.348	140.694
698.241	79.6333
701.133	83.3749
704.026	53.4414
706.919	37.4096
709.812	58.6116
712.704	50.8755
715.597	43.7374
718.49	16.8989
721.382	26.8459
724.275	9.96631
727.168	43.7489
730.06	19.9334
732.953	12.8809
735.846	12.1145
738.739	48.0538
741.631	48.719
744.524	19.0355
747.417	49.7394
750.309	63.5159
753.202	47.9613
756.095	50.3478
758.987	50.5195
761.88	30.9103
764.773	45.0908
767.665	14.2927
770.558	27.3849
773.451	54.0395
776.344	35.1433
779.236	36.0653
782.129	47.602
785.022	61.464
787.914	46.7683
790.807	54.6182
793.7	23.6774
796.592	1.24121
799.485	13.1061
802.378	16.8737
805.271	8.11328
808.163	29.5219
811.056	40.7253
813.949	53.3301
816.841	17.7916
819.734	30.7637
822.627	13.7762
825.519	10.6967
828.412	27.0548
831.305	12.7109
834.198	28.7687
837.09	34.3574
839.983	21.6339
842.876	40.4841
845.768	45.9587
848.661	15.4292
851.554	0.738037
854.447	23.2599
857.339	30.1545
860.232	21.4181
863.125	4.97961
866.017	18.3253
868.91	6.54492
871.803	22.6471
874.695	55.2733
877.588	37.8929
880.481	43.3339
883.373	51.8442
886.266	50.2535
889.159	47.4911
892.052	60.8091
894.944	68.444
897.837	90.0508
900.73	106.316
903.622	92.6849
906.515	86.2651
909.408	52.3353
912.3	51.2382
915.193	97.2886
918.086	41.316
920.979	3.82349
923.871	16.1273
926.764	19.4316
929.657	25.2659
932.549	35.825
935.442	43.8347
938.335	82.7528
941.227	63.0774
944.12	29.7456
947.013	80.8159
949.905	111.226
952.798	152.357
955.691	171.846
958.584	220.698
961.476	230.83
964.369	245.923
967.262	249.947
970.154	278.24
973.047	249.855
975.94	206.817
978.832	159.618
981.725	113.923
984.618	108.374
987.511	69.8701
990.403	31.5789
993.296	26.3357
996.189	33.2173
999.081	31.1072
1001.97	37.3718
1004.87	52.1033
1007.76	40.6553
1010.65	46.5305
1013.54	42.082
1016.44	54.1043
1019.33	12.0906
1022.22	17.6582
1025.12	8.46655
1028.01	20.6838
1030.9	33.0088
1033.79	2.22681
1036.69	27.8469
1039.58	0.520752
1042.47	26.696
1045.37	53.1352
1048.26	38.8716
1051.15	65.1196
1054.04	24.041
1056.93	31.5713
1059.83	45.3359
1062.72	9.87793
1065.61	18.0299
1068.51	14.4142
1071.4	33.3473
1074.29	67.823
1077.18	93.7759
1080.08	114.647
1082.97	197.101
1085.86	266.518
1088.76	233.38
1091.65	93.7684
1094.54	38.6932
1097.43	19.7966
1100.33	23.0607
1103.22	29.1638
1106.11	4.63501
1109	26.7095
1111.9	38.6177
1114.79	41.1942
1117.68	36.3513
1120.58	33.0508
1123.47	11.437
1126.36	24.3397
1129.25	61.5555
1132.15	53.574
1135.04	48.0095
1137.93	12.7322
1140.82	2.16577
1143.72	23.8307
1146.61	21.3165
1149.5	21.1001
1152.39	27.1495
1155.29	12.0115
1158.18	15.522
1161.07	10.2589
1163.96	19.5795
1166.86	31.2388
1169.75	10.5923
1172.64	3.6886
1175.54	40.9552
1178.43	54.3595
1181.32	54.802
1184.21	16.269
1187.11	55.6914
1190	57.7507
1192.89	65.6897
1195.79	43.9066
1198.68	64.1409
1201.57	21.8403
1204.46	17.8248
1207.36	21.0386
1210.25	13.4793
1213.14	52.8603
1216.03	24.7701
1218.93	38.2532
1221.82	45.3152
1224.71	17.986
1227.61	28.8843
1230.5	23.3623
