Measurement: Raman, 532 nm, unoriented, Raman Data Processed
Mineral: Winchite
Rruff sample: R061124
Ideal chemistry: [box]NaCa(Mg_4_Al)Si_8_O_22_(OH)_2_
Locality: Iratuyama, Ehime Prefecture, Japan
Source: Michael Scott
Description: Dark green prismatic crystals frozen in a matrix of calcite and mica
Measured chemistry: ([box]_0.65_Na_0.31_K_0.04_)_Σ=1_Na_1.00_(Ca_0.97_Mn_0.03_)_Σ=1_[(Mg_3.36_Fe^2+^_0.64_)_Σ=4_(Al_0.55_Fe^3+^_0.35_)_Σ=1_](Si_7.65_Al_0.35_)_Σ=8_O_22_((OH)_1.87_F_0.13_)_Σ=2_
Raman shift (cm-1)	intensity
145.361	0
148.253	4.3346
151.146	24.0046
154.039	145.258
156.931	240.761
159.824	335.503
162.717	402.535
165.609	540.643
168.502	709.226
171.395	974.483
174.287	1104.15
177.18	881.848
180.073	466.593
182.966	236.686
185.858	110.496
188.751	52.6704
191.644	70.1458
194.536	73.1719
197.429	108.078
200.322	178.389
203.214	244.838
206.107	327.435
209	390.41
211.893	501.995
214.785	667.621
217.678	826.983
220.571	931.747
223.463	995.578
226.356	920.988
229.249	772.148
232.142	628.867
235.034	477.722
237.927	329.795
240.82	266.323
243.712	228.483
246.605	270.574
249.498	327.649
252.39	340.544
255.283	331.323
258.176	265.37
261.068	189.487
263.961	72.6864
266.854	0.36499
269.747	44.1288
272.639	24.9919
275.532	37.8983
278.425	26.7632
281.317	20.2363
284.21	6.81274
287.103	23.6948
289.996	49.6653
292.888	58.6043
295.781	104.052
298.674	192.631
301.566	178.37
304.459	150.901
307.352	130.579
310.245	112.657
313.137	77.3589
316.03	52.4407
318.923	73.6421
321.815	146.276
324.708	141.713
327.601	250.63
330.493	309.056
333.386	294.682
336.279	216.326
339.171	158.086
342.064	126.234
344.957	95.8652
347.85	101.773
350.742	115.374
353.635	163.297
356.528	221.328
359.42	326.492
362.313	477.318
365.206	621.65
368.099	815.817
370.991	892.225
373.884	859.389
376.777	790.567
379.669	596.455
382.562	560.452
385.455	531.849
388.347	553.919
391.24	497.188
394.133	378.09
397.026	256.767
399.918	196.869
402.811	169.557
405.704	244.615
408.596	309.173
411.489	347.221
414.382	397.345
417.274	424.866
420.167	312.864
423.06	196.498
425.952	163.438
428.845	79.8979
431.738	78.2165
434.631	112.508
437.523	58.2488
440.416	16.082
443.309	16.3044
446.201	9.77417
449.094	56.9265
451.987	29.8091
454.88	50.762
457.772	32.4951
460.665	19.6582
463.558	1.12622
466.45	45.1465
469.343	46.6648
472.236	79.2602
475.128	109.165
478.021	85.0544
480.914	95.5229
483.807	97.0337
486.699	89.7393
489.592	113.239
492.485	150.938
495.377	183.951
498.27	191.486
501.163	235.98
504.055	358.695
506.948	393.591
509.841	459.993
512.734	506.221
515.626	552.043
518.519	605.188
521.412	652.639
524.304	692.357
527.197	764.656
530.09	877.939
532.982	1074.49
535.875	1160.88
538.768	1267.69
541.661	1345.93
544.553	1261.58
547.446	1153.44
550.339	1006.71
553.231	953.001
556.124	780.672
559.017	696.941
561.909	617.214
564.802	586.023
567.695	498.79
570.588	430.614
573.48	445.303
576.373	425.039
579.266	382.857
582.158	327.452
585.051	335.993
587.944	273.381
590.837	226.111
593.729	137.61
596.622	143.248
599.515	31.106
602.407	0.199219
605.3	9.36719
608.193	6.41431
611.085	3.06006
613.978	11.1685
616.871	9.75195
619.764	2.96191
622.656	28.8757
625.549	26.0666
628.442	110.073
631.334	95.0063
634.227	134.596
637.12	167.146
640.013	245.589
642.905	305.178
645.798	441.593
648.691	535.21
651.583	726.271
654.476	966.565
657.369	1297.67
660.261	1704.87
663.154	2258.98
666.047	2911.62
668.939	3455.66
671.832	3681.72
674.725	3299.76
677.618	2389.41
680.51	1597.9
683.403	1054.62
686.296	643.315
689.188	446.38
692.081	323.86
694.974	293.176
697.866	149.168
700.759	91.0674
703.652	88.1472
706.545	86.1968
709.437	63.523
712.33	34.1108
715.223	23.5652
718.115	19.7295
721.008	21.73
723.901	30.3401
726.793	7.59277
729.686	13.1462
732.579	72.4587
735.472	107.821
738.364	90.0398
741.257	101.115
744.15	103.935
747.042	131.831
749.935	143.419
752.828	139.765
755.721	130.652
758.613	162.512
761.506	125.281
764.399	132.66
767.291	139.599
770.184	110.747
773.077	91.7549
775.969	99.3897
778.862	99.4807
781.755	157.486
784.648	127.065
787.54	118.149
790.433	134.667
793.326	140.14
796.218	102.668
799.111	84.8603
802.004	45.3384
804.896	90.2571
807.789	59.4175
810.682	61.9509
813.574	9.01831
816.467	30.8577
819.36	35.6357
822.253	6.47974
825.145	17.4368
828.038	34.9426
830.931	4.67017
833.823	6.05591
836.716	26.8374
839.609	33.4517
842.501	22.936
845.394	7.13501
848.287	22.7422
851.18	11.1123
854.072	21.5557
856.965	2.28833
859.858	18.3315
862.75	36.2144
865.643	61.0747
868.536	44.6611
871.428	94.5915
874.321	119.892
877.214	77.698
880.107	96.2456
882.999	188.457
885.892	252.323
888.785	219.652
891.678	280.783
894.57	326.274
897.463	341.238
900.356	305.842
903.248	312.271
906.141	282.076
909.034	247.246
911.926	220.519
914.819	219.695
917.712	167.808
920.605	161.534
923.497	167.816
926.39	169.642
929.283	171.425
932.175	155.362
935.068	179.012
937.961	194.612
940.853	213.29
943.746	300.269
946.639	395.18
949.532	495.879
952.424	608.192
955.317	811.841
958.21	859.35
961.102	1019.64
963.995	1095.17
966.888	1115.38
969.78	1150.7
972.673	1020.12
975.566	896.787
978.458	753.123
981.351	588.861
984.244	401.939
987.137	278.422
990.029	165.52
992.922	95.1106
995.815	38.7527
998.707	11.2363
1001.6	2.26538
1004.49	15.8247
1007.38	16.2573
1010.28	20.1675
1013.17	19.9719
1016.06	8.54517
1018.96	47.8174
1021.85	49.0986
1024.74	63.0518
1027.63	89.1909
1030.53	118.84
1033.42	112.219
1036.31	105.269
1039.2	139.262
1042.1	163.214
1044.99	185.469
1047.88	120.687
1050.78	129.012
1053.67	97.6919
1056.56	80.0686
1059.45	132.932
1062.35	131.126
1065.24	120.29
1068.13	159.358
1071.03	114.099
1073.92	135.206
1076.81	233.001
1079.7	253.331
1082.6	398.752
1085.49	387.613
1088.38	334.793
1091.27	135.284
1094.17	29.1023
1097.06	5.5542
1099.95	25.8894
1102.85	6.63745
1105.74	38.9062
1108.63	33.522
1111.52	24.0962
1114.42	54.969
1117.31	45.9497
1120.2	53.6445
1123.09	31.47
1125.99	65.4819
1128.88	46.6794
1131.77	63.1257
1134.66	69.6367
1137.56	67.5249
1140.45	37.3413
1143.34	38.1267
1146.23	55.9861
1149.13	42.9126
1152.02	32.4316
1154.91	58.7395
1157.81	34.5813
1160.7	19.0781
1163.59	2.59448
1166.48	27.6882
1169.38	40.1509
1172.27	44.6455
1175.16	9.31201
1178.06	4.52637
1180.95	40.8455
1183.84	26.7293
1186.73	55.043
1189.63	71.2366
1192.52	43.1914
1195.41	78.196
1198.3	90.6462
1201.2	70.3897
1204.09	55.6455
1206.98	79.4206
1209.88	90.7913
1212.77	103.831
1215.66	91.5059
1218.55	112.665
1221.44	58.748
1224.34	107.197
1227.23	40.5088
1230.12	67.2141
1233.02	82.3286
1235.91	56.825
1238.8	57.6565
1241.69	38.125
1244.59	18.0105
1247.48	88.1406
1250.37	36.0205
1253.27	70.7034
1256.16	48.7515
1259.05	50.8496
1261.94	4.75366
1264.84	21.0928
1267.73	27.2998
1270.62	32.0745
1273.51	38.5364
1276.41	38.4058
1279.3	26.3132
