Measurement: Raman, 532 nm, unoriented, Raman Data Processed
Mineral: Wiserite
Rruff sample: R130122
Ideal chemistry: Mn^2+^_14_(B_2_O_5_)_4_(OH)_8_(Si,Mg)(O,OH)_4_Cl
Locality: Kombat Mine, Namibia
Source: Rock Currier
Description: Light brown prismatic to needles, associated with black hausmannite and white barite
Raman shift (cm-1)	intensity
199.766	0
202.659	5.35712
205.552	4.93968
208.445	6.95183
211.337	2.41161
214.23	1.9083
217.123	1.98332
220.015	2.27611
222.908	5.41028
225.801	7.17427
228.693	5.02954
231.586	7.12421
234.479	6.33713
237.371	7.17453
240.264	9.28067
243.157	10.3982
246.05	7.39258
248.942	5.70956
251.835	5.85809
254.728	4.93381
257.62	4.78836
260.513	4.63028
263.406	5.07513
266.298	6.4061
269.191	6.3378
272.084	5.86017
274.977	7.28775
277.869	8.08282
280.762	6.90222
283.655	6.59879
286.547	5.37415
289.44	4.65045
292.333	2.70306
295.226	1.1196
298.118	0.803528
301.011	0.903046
303.904	1.66519
306.796	0.034821
309.689	1.57687
312.582	1.56278
315.474	2.7904
318.367	4.20837
321.26	2.75183
324.152	1.78479
327.045	1.14957
329.938	2.42285
332.831	1.29404
335.723	2.97983
338.616	0.910919
341.509	0.65979
344.401	0.544281
347.294	0.81546
350.187	0.41452
353.079	1.99292
355.972	6.32831
358.865	4.04956
361.758	3.83646
364.65	3.09509
367.543	5.2822
370.436	7.12961
373.328	5.06662
376.221	5.51718
379.114	5.46469
382.007	3.11679
384.899	2.46838
387.792	3.11334
390.685	2.52588
393.577	1.24719
396.47	1.80923
399.363	0.993134
402.255	2.36221
405.148	2.36865
408.041	0.70282
410.933	0.638397
413.826	2.69162
416.719	2.7355
419.612	1.81183
422.504	1.70709
425.397	0.596893
428.29	1.51785
431.182	1.77243
434.075	1.29834
436.968	2.20004
439.861	1.7428
442.753	2.38168
445.646	1.92502
448.539	3.88992
451.431	4.64648
454.324	3.36035
457.217	4.96234
460.109	4.59116
463.002	5.04852
465.895	4.43863
468.788	2.2345
471.68	2.83847
474.573	3.49271
477.466	3.96387
480.358	6.50159
483.251	5.01932
486.144	4.04651
489.036	1.51074
491.929	2.73279
494.822	1.26938
497.714	1.17697
500.607	1.50162
503.5	0.016693
506.393	2.53302
509.285	5.1019
512.178	6.63324
515.071	9.41318
517.963	10.2021
520.856	14.0524
523.749	15.17
526.641	11.5129
529.534	7.14697
532.427	2.84576
535.32	3.83893
538.212	1.69327
541.105	0.28775
543.998	0.982971
546.89	0.205444
549.783	1.51318
552.676	0.845581
555.568	0.441681
558.461	0.815491
561.354	0.8013
564.247	0.836609
567.139	0.543182
570.032	0.022705
572.925	0.96637
575.817	0.079987
578.71	0.100952
581.603	1.49435
584.495	0.888916
587.388	2.76816
590.281	2.77768
593.174	2.56305
596.066	5.50574
598.959	6.47482
601.852	6.46381
604.744	7.36285
607.637	9.70608
610.53	10.5089
613.423	12.7641
616.315	16.3991
619.208	18.4535
622.101	20.0587
624.993	17.1927
627.886	19.6878
630.779	21.1767
633.671	24.4802
636.564	27.0889
639.457	32.5136
642.35	39.248
645.242	49.2653
648.135	65.1278
651.028	76.0425
653.92	93.1528
656.813	103.464
659.706	100.846
662.598	85.8458
665.491	66.2573
668.384	46.3225
671.277	34.9904
674.169	26.2271
677.062	21.2867
679.955	15.0671
682.847	14.1915
685.74	13.1154
688.633	12.4255
691.525	14.734
694.418	15.3277
697.311	10.6562
700.203	7.82761
703.096	4.19623
705.989	1.77795
708.882	0.120728
711.774	0.637177
714.667	0.409546
717.56	1.40619
720.452	0.543427
723.345	0.739685
726.238	1.02978
729.13	0.467712
732.023	0.41394
734.916	0.751953
737.809	2.7616
740.701	1.04788
743.594	1.86176
746.487	3.19998
749.379	2.80069
752.272	2.56253
755.165	2.48755
758.058	1.07169
760.95	2.00839
763.843	4.55521
766.736	4.05704
769.628	3.16443
772.521	4.35834
775.414	5.81924
778.306	3.6514
781.199	2.30408
784.092	1.9129
786.985	4.67255
789.877	1.64078
792.77	3.42389
795.663	5.74847
798.555	5.44141
801.448	8.99423
804.341	10.8036
807.233	17.408
810.126	25.5788
813.019	37.3394
815.912	53.9994
818.804	73.2911
821.697	100.194
824.59	126.203
827.482	148.674
830.375	168.889
833.268	190.042
836.16	208.345
839.053	208.706
841.946	160.662
844.838	90.5327
847.731	50.2887
850.624	28.5144
853.517	18.8913
856.409	12.4439
859.302	8.57275
862.195	8.24866
865.087	5.61151
867.98	4.96576
870.873	2.97079
873.765	3.81903
876.658	2.73965
879.551	1.44971
882.444	1.72391
885.336	0.335968
888.229	0.002808
891.122	1.59973
894.014	1.09033
896.907	0.692444
899.8	0.067871
902.692	2.3822
905.585	2.11108
908.478	2.86621
911.371	1.745
914.263	0.488129
917.156	1.26508
920.049	1.82932
922.941	1.38559
925.834	0.793274
928.727	0.11911
931.62	0.00589
934.512	2.02463
937.405	1.03705
940.298	2.5517
943.19	0.222931
946.083	3.53052
948.976	2.60489
951.868	1.91089
954.761	0.054352
957.654	0.329468
960.547	0.909729
963.439	0.817017
966.332	4.29996
969.225	4.715
972.117	3.96982
975.01	3.80054
977.903	5.12103
980.795	3.77917
983.688	2.53528
986.581	2.2265
989.473	2.84821
992.366	1.87543
995.259	3.86646
998.152	1.89374
1001.04	1.63605
1003.94	2.17636
1006.83	2.02307
1009.72	3.0047
1012.62	2.38452
1015.51	2.10617
1018.4	2.01611
1021.29	2.54639
1024.19	3.04318
1027.08	2.94745
1029.97	3.17142
1032.86	1.84601
1035.76	3.0719
1038.65	0.080322
1041.54	2.13452
1044.43	2.23419
1047.33	1.99078
1050.22	0.22644
1053.11	1.05692
1056.01	0.79184
1058.9	1.57895
1061.79	1.42313
1064.68	1.12528
1067.58	0.945648
1070.47	1.41257
1073.36	1.30505
1076.26	2.51389
1079.15	4.50543
1082.04	8.36087
1084.93	10.792
1087.83	9.82745
1090.72	5.68634
1093.61	4.76843
1096.5	3.92899
1099.4	1.20019
1102.29	2.33112
1105.18	1.59494
1108.07	1.97775
1110.97	2.35461
1113.86	1.96661
1116.75	3.5477
1119.64	2.39249
1122.54	5.20489
1125.43	1.4888
1128.32	3.07471
1131.22	2.4577
1134.11	2.82706
1137	1.90778
1139.89	4.12085
1142.79	1.08749
1145.68	0.794373
1148.57	2.81232
1151.46	1.08017
1154.36	1.63074
1157.25	0.607269
1160.14	1.92914
1163.04	1.99774
1165.93	1.26471
1168.82	2.98477
1171.71	3.0582
1174.61	2.29694
1177.5	3.8327
1180.39	3.76984
1183.28	4.62418
1186.18	3.20734
1189.07	1.39255
1191.96	2.93014
1194.86	1.34033
1197.75	3.46692
1200.64	4.54547
1203.53	3.27933
1206.43	1.36627
1209.32	2.77609
1212.21	4.46631
1215.1	1.19977
1218	0.742065
1220.89	0.595337
1223.78	2.23508
1226.67	3.37253
1229.57	1.05789
1232.46	1.5347
1235.35	2.11902
1238.25	0.227386
1241.14	1.51843
1244.03	0.693176
1246.92	2.34522
1249.82	4.79645
1252.71	7.27399
1255.6	12.4834
1258.49	22.4213
1261.39	27.6455
1264.28	30.5578
1267.17	32.2716
1270.07	29.9484
1272.96	25.516
1275.85	19.2482
1278.74	14.0891
1281.64	10.8588
1284.53	6.98517
1287.42	3.15967
1290.31	2.54492
1293.21	0.934509
1296.1	1.5694
1298.99	0.534485
1301.88	0
