Measurement: Raman, 780 nm, unoriented, Raman Data Processed
Mineral: Wiserite
Rruff sample: R130122
Ideal chemistry: Mn^2+^_14_(B_2_O_5_)_4_(OH)_8_(Si,Mg)(O,OH)_4_Cl
Locality: Kombat Mine, Namibia
Source: Rock Currier
Description: Light brown prismatic to needles, associated with black hausmannite and white barite
Raman shift (cm-1)	intensity
180.391	0
183.284	1.63777
186.177	3.64322
189.069	6.05823
191.962	8.45946
194.855	8.52675
197.747	11.5588
200.64	10.0028
203.533	10.7975
206.425	8.00771
209.318	6.60432
212.211	5.57729
215.103	2.99905
217.996	2.54919
220.889	1.56015
223.782	2.28598
226.674	1.55089
229.567	0.259888
232.46	0.616013
235.352	0.704956
238.245	0.377136
241.138	1.21094
244.03	0.31102
246.923	0.18573
249.816	0.477631
252.709	0.992645
255.601	0.882172
258.494	0.844681
261.387	2.55713
264.279	3.10606
267.172	5.73125
270.065	5.6842
272.957	7.03639
275.85	7.84784
278.743	8.9847
281.635	7.68718
284.528	7.10214
287.421	9.09379
290.314	7.22702
293.206	9.59422
296.099	6.9054
298.992	7.52151
301.884	5.78405
304.777	5.16715
307.67	5.78421
310.562	5.53104
313.455	3.46996
316.348	4.46797
319.241	2.20536
322.133	2.38374
325.026	2.1822
327.919	2.73068
330.811	2.26871
333.704	3.04228
336.597	2.84019
339.49	2.42667
342.382	1.38463
345.275	1.14965
348.168	2.56415
351.06	1.45377
353.953	1.69289
356.846	2.35972
359.738	3.72652
362.631	5.15101
365.524	3.56116
368.416	4.42518
371.309	4.03477
374.202	2.50037
377.095	2.45305
379.987	3.10955
382.88	2.91846
385.773	1.44234
388.665	1.75343
391.558	1.83472
394.451	0.294113
397.344	0.196083
400.236	0.80822
403.129	0.118034
406.022	0.859436
408.914	1.17977
411.807	1.12784
414.7	0.744759
417.592	0.535439
420.485	0.465279
423.378	1.72273
426.27	0.790741
429.163	0.707146
432.056	0.460716
434.949	0.574867
437.841	1.08552
440.734	0.617584
443.627	1.76148
446.519	1.55143
449.412	2.20056
452.305	2.20023
455.197	2.05409
458.09	2.30764
460.983	2.91012
463.875	2.34798
466.768	2.23653
469.661	2.10263
472.554	1.96407
475.446	2.80724
478.339	1.81045
481.232	3.79337
484.124	2.39947
487.017	3.96171
489.91	2.99195
492.803	2.05422
495.695	1.825
498.588	0.796379
501.481	0.122223
504.373	0.256294
507.266	0.247108
510.159	0.670235
513.051	1.3942
515.944	1.311
518.837	4.67285
521.73	3.97173
524.622	3.00211
527.515	1.14151
530.408	0.843185
533.3	0.693169
536.193	1.29063
539.086	0.486351
541.978	0.908524
544.871	0.002792
547.764	0.628197
550.656	0.74633
553.549	1.90035
556.442	3.98698
559.335	3.56994
562.227	4.36461
565.12	5.16034
568.013	5.16457
570.905	4.90824
573.798	6.42869
576.691	6.21532
579.583	8.54076
582.476	9.14877
585.369	9.55042
588.261	11.9593
591.154	12.5904
594.047	14.9102
596.94	15.2258
599.832	18.1397
602.725	21.5909
605.618	24.896
608.51	26.8849
611.403	30.4157
614.296	32.7416
617.188	36.8954
620.081	37.7351
622.974	40.6599
625.867	41.7215
628.759	44.1096
631.652	45.3021
634.545	47.1856
637.437	50.4564
640.33	52.2307
643.223	56.5824
646.115	58.1643
649.008	61.7709
651.901	61.3336
654.794	61.5352
657.686	58.4602
660.579	52.6003
663.472	44.1574
666.364	37.6407
669.257	28.9124
672.15	22.2216
675.043	17.6228
677.935	14.0528
680.828	11.3134
683.721	10.5861
686.613	11.095
689.506	11.0918
692.399	12.386
695.291	10.251
698.184	6.55242
701.077	3.32131
703.97	1.63837
706.862	0.65477
709.755	0.4879
712.648	0.779549
715.54	1.33569
718.433	0.890221
721.326	0.697334
724.218	0.84478
727.111	0.035934
730.004	0.364372
732.896	1.37025
735.789	0.472198
738.682	1.51456
741.574	1.78851
744.467	2.08579
747.36	1.37111
750.253	3.3536
753.145	2.38407
756.038	2.04456
758.931	3.05154
761.823	3.84259
764.716	3.26789
767.609	3.32206
770.501	2.57787
773.394	2.18417
776.287	1.45165
779.18	1.92173
782.072	1.06471
784.965	1.41982
787.858	0.534325
790.75	1.78852
793.643	2.11114
796.536	3.36416
799.428	2.18886
802.321	4.77877
805.214	6.104
808.107	9.90591
810.999	14.5545
813.892	20.7667
816.785	28.6686
819.677	38.2623
822.57	49.4741
825.463	60.8403
828.356	70.824
831.248	78.043
834.141	85.6565
837.034	88.9561
839.926	78.6021
842.819	51.5874
845.712	29.3741
848.604	16.7972
851.497	10.9763
854.39	8.34195
857.283	6.38753
860.175	4.7673
863.068	4.63176
865.961	3.688
868.853	2.549
871.746	2.711
874.639	2.04571
877.531	1.65768
880.424	1.27362
883.317	1.51679
886.209	1.80597
889.102	1.31599
891.995	1.60932
894.888	1.02141
897.78	1.01791
900.673	0.681511
903.566	0.16
906.458	0.301918
909.351	0.73106
912.244	0.574394
915.136	0.229916
918.029	0.35973
920.922	0.050869
923.814	0.38509
926.707	0.221165
929.6	0.186996
932.493	0.044628
935.385	0.16436
938.278	0.463936
941.171	0.979931
944.063	0.714737
946.956	0.980129
949.849	1.10702
952.741	0.372307
955.634	0.626301
958.527	0.566128
961.42	0.978115
964.312	1.20046
967.205	0.903584
970.098	1.0507
972.99	1.8027
975.883	1.60374
978.776	1.32964
981.668	0.943268
984.561	0.889896
987.454	1.07793
990.347	1.10622
993.239	0.378159
996.132	1.01066
999.025	1.04221
1001.92	1.19597
1004.81	0.556828
1007.7	1.05089
1010.6	0.610924
1013.49	1.27944
1016.38	1.21526
1019.27	0.657017
1022.17	0.640865
1025.06	0.712826
1027.95	0.283897
1030.84	0.743389
1033.74	0.160847
1036.63	1.07716
1039.52	0.36739
1042.41	0.218143
1045.31	0.45808
1048.2	0.477394
1051.09	0.214725
1053.99	0.912346
1056.88	0.093197
1059.77	0.25322
1062.66	0.606926
1065.56	0.49844
1068.45	0.49432
1071.34	0.843773
1074.23	1.47259
1077.13	0.347569
1080.02	0.746189
1082.91	0.562721
1085.81	1.27489
1088.7	1.53266
1091.59	0.549866
1094.48	0.757751
1097.38	0.698471
1100.27	0.06226
1103.16	0.71698
1106.05	0.386753
1108.95	1.46198
1111.84	1.0157
1114.73	0.123474
1117.62	0.277569
1120.52	0.375496
1123.41	0.964703
1126.3	0.695473
1129.2	0.587463
1132.09	0.534122
1134.98	0.225597
1137.87	0.815636
1140.77	0.67683
1143.66	0.16037
1146.55	0.961369
1149.44	0.994957
1152.34	0.819881
1155.23	1.0995
1158.12	0.745808
1161.02	1.08559
1163.91	0.737595
1166.8	1.25282
1169.69	1.62357
1172.59	1.47588
1175.48	2.61909
1178.37	1.87504
1181.27	1.91606
1184.16	1.76019
1187.05	2.21945
1189.94	2.13456
1192.84	1.31081
1195.73	2.22622
1198.62	0.958061
1201.51	0.975655
1204.41	0.684765
1207.3	0.877888
1210.19	0.536037
1213.08	0.612038
1215.98	0.907417
1218.87	0.987125
1221.76	0.116203
1224.65	0.389633
1227.55	0.287498
1230.44	1.16605
1233.33	0.324417
1236.23	0.341877
1239.12	0.356476
1242.01	1.45577
1244.9	1.07116
1247.8	0.826595
1250.69	2.64476
1253.58	3.6516
1256.47	5.25765
1259.37	5.83728
1262.26	7.65915
1265.15	7.75398
1268.05	6.88605
1270.94	5.15067
1273.83	3.14786
1276.72	1.96814
1279.62	0.776802
1282.51	0.15855
