Measurement: Raman, 532 nm, unoriented, Raman Data Processed
Mineral: Witherite
Rruff sample: R050267
Ideal chemistry: BaCO_3_
Locality: Fallowfields mine, Alston Moor, England
Source: Marcus Origlieri
Description: Colorless granular aggregate
Measured chemistry: (Ba_0.96_Sr_0.04_)CO_3_
Raman shift (cm-1)	intensity
93.9877	0
97.3625	55.4044
100.737	6.93797
104.112	11.9261
107.487	73.259
110.862	116.158
114.237	270.917
117.611	536.81
120.986	811.204
124.361	1023.95
127.736	1251.93
131.111	1715.53
134.486	2459.09
137.86	2670.55
141.235	2368.13
144.61	2589.01
147.985	2949.44
151.359	3677.69
154.734	4550.49
158.109	5017.95
161.484	4588.1
164.859	1992.52
168.234	1049.18
171.608	745.095
174.983	592.711
178.358	519.872
181.733	472.148
185.108	371.104
188.482	305.068
191.857	287.485
195.232	258.25
198.607	271.389
201.982	295.07
205.357	366.036
208.731	482.923
212.106	698.412
215.481	1006.58
218.856	1302.14
222.231	1195.05
225.606	1132.93
228.98	788.424
232.355	448.979
235.73	256.257
239.105	149.909
242.48	78.5076
245.854	43.4136
249.229	12.4319
252.604	1.95923
255.979	2.54712
259.354	9.8396
262.728	34.344
266.103	22.0847
269.478	22.9558
272.853	12.0005
276.228	0.150635
279.603	9.16235
282.977	8.05273
286.352	3.84717
289.727	8.93628
293.102	4.56958
296.477	19.5339
299.851	16.1089
303.226	19.0715
306.601	37.1355
309.976	29.8057
313.351	24.5757
316.726	41.8013
320.1	41.9578
323.475	24.7019
326.85	43.9075
330.225	42.7476
333.6	45.363
336.974	49.085
340.349	41.9541
343.724	33.1228
347.099	42.3413
350.474	37.8252
353.849	50.875
357.223	35.5491
360.598	39.0679
363.973	36.3064
367.348	39.4468
370.723	40.5195
374.097	31.1475
377.472	25.3005
380.847	26.0574
384.222	26.8572
387.597	32.8992
390.971	33.6567
394.346	30.6851
397.721	16.4844
401.096	28.7669
404.471	22.8921
407.846	31.7703
411.22	28.8254
414.595	25.9407
417.97	9.19678
421.345	16.3999
424.72	10.3103
428.094	9.43701
431.469	19.9712
434.844	25.7605
438.219	14.2315
441.594	8.57178
444.969	17.8416
448.343	6.83716
451.718	16.9822
455.093	7.85815
458.468	14.7183
461.843	5.56787
465.217	11.2864
468.592	3.17065
471.967	5.06982
475.342	1.0293
478.717	14.7195
482.091	11.373
485.466	12.5813
488.841	8.24731
492.216	17.1755
495.591	2.17139
498.966	7.47339
502.34	6.51709
505.715	8.38306
509.09	4.12842
512.465	3.87744
515.84	9.67822
519.215	7.88135
522.589	1.34375
525.964	14.9158
529.339	8.24292
532.714	10.9663
536.089	16.3013
539.463	17.0017
542.838	15.4114
546.213	1.88379
549.588	15.8015
552.963	17.811
556.337	8.44141
559.712	9.52612
563.087	19.8484
566.462	2.19995
569.837	1.04541
573.212	4.26758
576.586	3.72412
579.961	14.6084
583.336	15.645
586.711	15.2175
590.086	16.7371
593.46	6.8894
596.835	34.0105
600.21	6.38013
603.585	24.4553
606.96	14.7087
610.335	25.1204
613.709	19.5403
617.084	21.1609
620.459	21.812
623.834	22.6194
627.209	14.302
630.583	7.271
633.958	17.6736
637.333	7.57519
640.708	1.90283
644.083	2.93433
647.457	5.51514
650.832	3.96777
654.207	3.34546
657.582	14.4631
660.957	36.438
664.332	31.5186
667.706	21.5315
671.081	23.8933
674.456	54.2092
677.831	212.363
681.206	319.392
684.58	644.808
687.955	1265.78
691.33	1937.31
694.705	415.239
698.08	127.123
701.455	92.5769
704.829	44.4136
708.204	20.1436
711.579	20.1924
714.954	9.06079
718.329	2.90601
721.703	5.68921
725.078	20.9119
728.453	7.78247
731.828	8.72607
735.203	5.70044
738.577	10.074
741.952	13.689
745.327	5.48755
748.702	8.78052
752.077	12.4988
755.452	11.5964
758.826	8.17529
762.201	10.7493
765.576	26.6912
768.951	30.55
772.326	15.0347
775.701	22.4959
779.075	0.198486
782.45	7.57129
785.825	17.7385
789.2	22.7266
792.574	13.428
795.949	29.876
799.324	20.167
802.699	17.0315
806.074	28.3906
809.449	28.3789
812.823	7.95703
816.198	13.6013
819.573	15.865
822.948	23.314
826.323	15.0894
829.697	6.61475
833.072	10.531
836.447	12.7957
839.822	1.96069
843.197	22.9873
846.572	24.8623
849.946	12.5022
853.321	24.9334
856.696	19.5906
860.071	15.7329
863.446	1.99048
866.821	15.552
870.195	9.76562
873.57	1.79858
876.945	11.9023
880.32	0.427002
883.695	7.17798
887.069	9.24512
890.444	24.1748
893.819	18.8191
897.194	24.2454
900.569	19.5281
903.943	17.0903
907.318	13.6553
910.693	10.134
914.068	22.4927
917.443	25.373
920.818	16.5715
924.192	15.4133
927.567	14.1809
930.942	19.6411
934.317	6.56885
937.692	1.87305
941.067	3.20776
944.441	0.54834
947.816	2.13354
951.191	1.66064
954.566	9.99829
957.941	2.01123
961.315	3.32886
964.69	1.61157
968.065	11.2729
971.44	19.6663
974.815	5.62427
978.189	13.6331
981.564	15.5071
984.939	13.1406
988.314	22.4202
991.689	10.0298
995.063	8.53784
998.438	13.4795
1001.81	9.92139
1005.19	2.12353
1008.56	14.4536
1011.94	0.381348
1015.31	21.5967
1018.69	0.502441
1022.06	5.3374
1025.44	15.2573
1028.81	19.1787
1032.19	26.0708
1035.56	40.5454
1038.94	108.932
1042.31	57.0312
1045.69	97.7861
1049.06	856.936
1052.43	1607.48
1055.81	3064.58
1059.18	10651
1062.56	5768.34
1065.93	251.964
1069.31	87.9399
1072.68	50.8325
1076.06	28.9751
1079.43	29.6948
1082.81	34.2212
1086.18	13.8027
1089.56	18.229
1092.93	3.71387
1096.31	8.4209
1099.68	21.1035
1103.06	11.8071
1106.43	0.98584
1109.81	2.54883
1113.18	26.3677
1116.56	2.44482
1119.93	8.21533
1123.31	10.5571
1126.68	4.52979
1130.06	19.2241
1133.43	17.2168
1136.81	15
1140.18	8.7456
1143.56	15.3247
1146.93	9.53906
1150.31	1.87158
1153.68	5.36279
1157.06	3.74463
1160.43	0.195801
1163.8	20.4727
1167.18	16.8657
1170.55	12.9653
1173.93	27.9404
1177.3	16.1748
1180.68	32.4312
1184.05	17.4775
1187.43	22.5312
1190.8	21.4736
1194.18	29.3564
1197.55	17.3511
1200.93	6.48096
1204.3	21.2036
1207.68	28.9238
1211.05	14.6553
1214.43	18.7832
1217.8	29.6343
1221.18	25.376
1224.55	17.1831
1227.93	19.7529
1231.3	21.2432
1234.67	28.6377
1238.05	11.8354
1241.42	5.68066
1244.8	4.15771
1248.17	6.79053
1251.55	26.4556
1254.92	11.3677
1258.3	12.0869
1261.67	0.616211
1265.05	30.269
1268.42	0.006836
1271.8	17.5264
1275.17	2.58252
1278.55	5.104
1281.92	18.6953
1285.3	24.4189
1288.67	24.8364
1292.05	32.3257
1295.42	8.6377
1298.8	13.0024
1302.17	18.6426
