Measurement: Raman, 514 nm, unoriented, Raman Data Processed
Mineral: Witherite
Rruff sample: R050267
Ideal chemistry: BaCO_3_
Locality: Fallowfields mine, Alston Moor, England
Source: Marcus Origlieri
Description: Colorless granular aggregate
Measured chemistry: (Ba_0.96_Sr_0.04_)CO_3_
Raman shift (cm-1)	intensity
90.587	0
94.768	8.10938
98.947	199.53
103.124	87.0649
107.3	154.757
111.473	206.917
115.644	519.257
119.813	903.651
123.981	1944.76
128.146	4905.68
132.309	10314.7
136.47	12154.1
140.63	7020.56
144.787	5080.76
148.942	7082.34
153.096	10387.5
157.247	9874.12
161.396	6605.69
165.544	2671.14
169.689	1176.35
173.833	886.27
177.974	1016.32
182.114	975.288
186.251	485.522
190.387	349.607
194.52	489.969
198.652	437.293
202.782	378.031
206.909	531.342
211.035	847.831
215.159	1453.37
219.281	2167.93
223.4	2225.6
227.518	1773.62
231.634	1033.7
235.748	686.746
239.86	484.685
243.97	305.221
248.079	195.349
252.185	141.389
256.289	197.063
260.391	50.2246
264.492	177.627
268.59	56.4605
272.687	106.933
276.781	472.119
280.874	136.469
284.964	13.8413
289.053	39.3804
293.14	16.2847
297.225	104.207
301.308	57.3286
305.389	19.7295
309.468	123.551
313.545	52.52
317.62	51.2026
321.693	27.0264
325.765	42.6079
329.834	44.147
333.902	9.19678
337.967	96.9053
342.031	38.647
346.093	61.957
350.153	152.025
354.21	132.966
358.267	31.9517
362.321	176.01
366.373	146.25
370.423	17.4751
374.471	91.2661
378.518	80.438
382.563	135.627
386.605	113.955
390.646	115.021
394.685	9.72266
398.722	99.0181
402.757	32.1035
406.79	7.2915
410.821	172.628
414.851	149.614
418.878	6.68164
422.904	130.498
426.927	137.838
430.949	159.392
434.969	46.7109
438.987	13.3457
443.003	38.6377
447.018	54.9443
451.03	23.6523
455.041	17.6963
459.049	76.5293
463.056	172.793
467.061	121.612
471.064	118.817
475.065	22.7783
479.064	122.531
483.062	85.4404
487.057	96.2109
491.051	42.4658
495.043	174.429
499.032	140.092
503.02	106.443
507.007	122.561
510.991	94.3262
514.973	371.253
518.954	239.177
522.933	65.7324
526.91	47.3428
530.885	150.712
534.858	123.064
538.829	111.294
542.799	228.018
546.766	130.947
550.732	12.9658
554.696	12.959
558.658	209.357
562.618	138.683
566.576	146.778
570.533	119.006
574.488	30.2012
578.44	9.73242
582.391	19.5137
586.341	19.2432
590.288	210.821
594.233	62.3457
598.177	0.939453
602.119	36.4004
606.059	128.769
609.997	246.414
613.933	106.143
617.868	122.09
621.801	19.6631
625.731	256.101
629.66	22.6973
633.588	105.601
637.513	152.068
641.437	94.2822
645.358	131.88
649.278	20.9268
653.196	184.731
657.113	48.5918
661.027	185.568
664.94	223.632
668.851	176.69
672.76	111.324
676.667	126.262
680.572	171.752
684.476	643.894
688.378	3383.22
692.278	2771.91
696.176	896.992
700.072	644.746
703.967	53.1982
707.86	190.215
711.751	53.6768
715.64	170.954
719.527	178.107
723.413	103.388
727.297	208.028
731.179	159.471
735.059	85.2695
738.937	159.148
742.814	66.6123
746.689	92.499
750.562	20.7061
754.433	137.462
758.303	160.865
762.17	80.6416
766.036	13.8096
769.901	189.855
773.763	223.481
777.624	111.909
781.482	114.708
785.339	173.246
789.195	90.1191
793.048	55.5977
796.9	116.836
800.75	101.388
804.598	137.287
808.445	69.8857
812.289	15.0322
816.132	17.6758
819.973	39.1631
823.813	82.6699
827.65	61.6445
831.486	190.131
835.32	176.978
839.152	99.209
842.983	140.217
846.812	92.1894
850.639	182.194
854.464	266.315
858.288	96.9424
862.11	167.824
865.93	91.1133
869.748	156.07
873.564	51.0039
877.379	114.826
881.192	174.631
885.004	74.6787
888.813	269.063
892.621	202.851
896.427	141.144
900.232	7.71191
904.034	90.8438
907.835	216.258
911.634	110.455
915.432	201.278
919.227	175.153
923.021	145.536
926.813	111.355
930.604	205.741
934.393	167.37
938.18	273.779
941.965	229.55
945.749	43.9287
949.53	8.21582
953.311	12.1699
957.089	109.553
960.866	223.515
964.641	178.077
968.414	123.24
972.185	47.5205
975.955	58.5664
979.723	216.508
983.49	452.553
987.254	181.174
991.017	120.775
994.779	129.523
998.538	228.444
1002.3	64.5498
1006.05	182.332
1009.81	241.576
1013.56	168.469
1017.31	319.989
1021.06	281.455
1024.81	396.445
1028.55	354.646
1032.3	325.137
1036.04	370.228
1039.78	545.209
1043.52	357.118
1047.26	302.902
1050.99	632.14
1054.73	1443.23
1058.46	26108.7
1062.19	20407.6
1065.92	1980.02
1069.65	395.779
1073.37	405.603
1077.1	269.433
1080.82	474.312
1084.54	316.49
1088.26	235.407
1091.97	249.473
1095.69	255.238
1099.4	58.4951
1103.12	106.413
1106.83	55.7627
1110.54	124.497
1114.24	111.912
1117.95	180.365
1121.65	84.291
1125.35	194.543
1129.06	25.957
1132.75	185.99
1136.45	229.398
1140.15	47.3174
1143.84	172.28
1147.53	35.9873
1151.22	78.3027
1154.91	128.336
1158.6	77.8535
1162.28	45.5781
1165.97	186.135
1169.65	164.903
1173.33	142.454
1177.01	243.808
1180.69	181.907
1184.36	204.269
1188.04	171.666
1191.71	210.455
1195.38	553.344
1199.05	151.965
1202.71	349.9
1206.38	309.606
1210.04	204.111
1213.71	217.42
1217.37	188.293
1221.03	309.316
1224.68	226.453
1228.34	209.853
1231.99	201.051
1235.65	284.838
1239.3	186.815
1242.95	321.621
1246.59	329.996
1250.24	159.805
1253.88	276.879
1257.53	38.9238
1261.17	113.193
1264.81	301.725
1268.45	228.287
1272.08	272.791
1275.72	71.7598
1279.35	341.09
1282.98	12.1719
1286.61	216.26
1290.24	70.1367
1293.87	139.084
1297.49	49.8242
1301.11	261.266
1304.73	70.082
1308.36	173.185
1311.97	138.828
1315.59	6.71875
1319.2	0.978516
1322.82	92.291
1326.43	224.123
1330.04	97.6562
1333.65	148.988
1337.26	79.9102
1340.86	242.969
1344.47	70.2441
1348.07	167.31
1351.67	205.463
1355.27	183.717
1358.87	247.092
1362.46	133.006
1366.06	165.947
1369.65	298.781
1373.24	263.394
1376.83	158.389
1380.42	324.215
1384	281.121
1387.59	337.676
1391.17	316.221
1394.75	353.746
1398.33	312.531
1401.91	392.834
1405.49	222.127
1409.06	224.934
1412.64	381.133
1416.21	296.441
1419.78	823.17
1423.35	1480.58
1426.91	399.135
1430.48	296.572
1434.05	272.065
1437.61	394.418
1441.17	447.269
1444.73	318.199
1448.29	351.016
1451.84	339.471
1455.4	433.615
1458.95	307.019
1462.5	285.023
1466.05	219.17
1469.6	231.996
1473.15	31.8496
1476.69	92.0176
1480.24	46.7129
1483.78	330.496
1487.32	94.1836
1490.86	173.935
1494.39	132.254
1497.93	12.3711
1501.46	198.754
1505	222.103
1508.53	299.691
1512.06	320.734
1515.59	92.0391
1519.11	146.584
1522.64	0
