Measurement: Raman, 780 nm, unoriented, Raman Data Processed
Mineral: Witherite
Rruff sample: R050267
Ideal chemistry: BaCO_3_
Locality: Fallowfields mine, Alston Moor, England
Source: Marcus Origlieri
Description: Colorless granular aggregate
Measured chemistry: (Ba_0.96_Sr_0.04_)CO_3_
Raman shift (cm-1)	intensity
106.172	0
109.547	0.046021
112.922	10.3644
116.297	54.6118
119.671	80.3486
123.046	145.519
126.421	238.284
129.796	402.356
133.171	671.112
136.546	904.719
139.92	855.586
143.295	928.56
146.67	1085.44
150.045	1406.29
153.419	1899.25
156.794	2524.83
160.169	2874.63
163.544	1194.82
166.919	352.093
170.294	128.201
173.668	53.4901
177.043	28.4032
180.418	35.5457
183.793	1.89722
187.168	11.3033
190.542	8.60785
193.917	13.1834
197.292	58.5077
200.667	103.342
204.042	157.144
207.417	257.192
210.791	367.283
214.166	529.662
217.541	709.71
220.916	688.701
224.291	642.314
227.666	486.989
231.04	272.712
234.415	163.352
237.79	99.522
241.165	68.9665
244.54	35.5198
247.914	25.9531
251.289	14.814
254.664	6.57532
258.039	0.721558
261.414	2.48554
264.788	2.39807
268.163	5.47754
271.538	5.43158
274.913	0.903259
278.288	1.98468
281.663	6.75464
285.037	2.24237
288.412	3.82831
291.787	3.70343
295.162	5.43549
298.537	9.88574
301.911	7.25226
305.286	4.6333
308.661	4.76477
312.036	5.58832
315.411	8.00604
318.786	4.85083
322.16	7.7804
325.535	2.79901
328.91	6.72363
332.285	11.5278
335.66	6.71179
339.034	9.9931
342.409	10.8317
345.784	10.4753
349.159	13.4396
352.534	5.79803
355.909	8.65063
359.283	10.2117
362.658	11.2907
366.033	12.6372
369.408	4.05084
372.783	9.38318
376.157	18.1841
379.532	12.4074
382.907	1.95575
386.282	5.04059
389.657	14.224
393.031	4.31641
396.406	1.20013
399.781	4.80725
403.156	9.77441
406.531	4.84601
409.906	4.85785
413.28	3.68018
416.655	1.07465
420.03	2.70441
423.405	4.37268
426.78	7.01929
430.154	0.558167
433.529	13.2942
436.904	2.88757
440.279	7.87891
443.654	2.57855
447.029	6.25842
450.403	4.39386
453.778	3.49377
457.153	4.06915
460.528	7.54559
463.903	3.73303
467.277	6.51233
470.652	7.33374
474.027	6.0412
477.402	5.85992
480.777	2.66504
484.152	7.39105
487.526	0.477966
490.901	2.82373
494.276	1.87225
497.651	3.64764
501.026	1.68304
504.4	4.9361
507.775	4.23645
511.15	3.57703
514.525	5.36829
517.9	5.83173
521.274	2.47162
524.649	5.87726
528.024	12.0188
531.399	9.70056
534.774	6.31244
538.149	4.92108
541.523	1.77527
544.898	1.75195
548.273	1.92822
551.648	6.23285
555.023	2.95844
558.398	1.90833
561.772	0.204041
565.147	3.26508
568.522	7.60895
571.897	3.47345
575.272	9.6015
578.646	2.19708
582.021	6.1684
585.396	8.87372
588.771	8.97729
592.146	1.51147
595.52	10.7628
598.895	4.51733
602.27	7.01147
605.645	6.8399
609.02	2.26794
612.394	5.03998
615.769	10.8439
619.144	6.40308
622.519	1.44946
625.894	8.87616
629.269	10.5733
632.643	12.5945
636.018	6.39386
639.393	1.77429
642.768	7.66827
646.143	8.4613
649.518	3.82721
652.892	9.3313
656.267	3.86981
659.642	12.3621
663.017	4.80072
666.392	6.85254
669.766	9.19391
673.141	62.0052
676.516	177.028
679.891	210.54
683.266	325.642
686.64	630.581
690.015	1115.24
693.39	322.763
696.765	64.9834
700.14	35.6622
703.515	15.801
706.889	12.9419
710.264	2.01727
713.639	6.40082
717.014	1.72052
720.389	1.06451
723.764	1.10052
727.138	2.10236
730.513	2.11377
733.888	5.31049
737.263	3.75147
740.638	0.120667
744.012	4.58746
747.387	0.485474
750.762	4.23682
754.137	4.66864
757.512	2.1485
760.886	0.401367
764.261	6.94788
767.636	2.41675
771.011	5.29748
774.386	3.86047
777.761	3.56103
781.135	2.13281
784.51	3.56879
787.885	3.02051
791.26	4.2901
794.635	4.93738
798.01	1.22369
801.384	7.27252
804.759	1.7572
808.134	8.46765
811.509	3.08618
814.884	8.85651
818.258	3.52966
821.633	7.11566
825.008	5.20502
828.383	6.78449
831.758	6.5846
835.132	4.47736
838.507	6.89123
841.882	7.396
845.257	8.90131
848.632	7.42743
852.006	1.43823
855.381	6.5213
858.756	3.8183
862.131	6.08313
865.506	1.31805
868.881	6.85159
872.255	6.60663
875.63	4.21994
879.005	3.3541
882.38	0.714081
885.755	3.2518
889.13	4.14639
892.504	2.05658
895.879	4.63303
899.254	0.325806
902.629	0.973877
906.004	7.15439
909.378	0.815918
912.753	1.19125
916.128	1.94635
919.503	4.77878
922.878	3.83795
926.252	1.87732
929.627	2.52216
933.002	3.19907
936.377	4.52469
939.752	2.2236
943.126	5.04602
946.501	2.32724
949.876	6.75092
953.251	6.24393
956.626	2.70648
960.001	6.36392
963.375	5.25546
966.75	7.88007
970.125	2.31744
973.5	3.21066
976.875	4.12628
980.25	9.04376
983.624	7.67337
986.999	1.40814
990.374	5.32306
993.749	7.23245
997.124	2.68237
1000.5	6.42627
1003.87	1.19827
1007.25	1.63461
1010.62	9.13391
1014	4.45459
1017.37	3.04416
1020.75	10.4928
1024.12	11.8569
1027.5	13.27
1030.87	12.7953
1034.25	22.9909
1037.62	40.8633
1041	38.8897
1044.37	79.3501
1047.75	710.277
1051.12	885.764
1054.49	1656.62
1057.87	3406.87
1061.24	4135.48
1064.62	163.961
1067.99	35.2148
1071.37	19.1415
1074.74	12.3949
1078.12	1.71487
1081.49	7.66235
1084.87	4.20737
1088.24	1.14429
1091.62	0.212372
1094.99	7.01331
1098.37	2.93298
1101.74	0.97049
1105.12	1.53528
1108.49	2.49179
1111.87	0.355225
1115.24	0.741058
1118.62	2.55823
1121.99	0.4216
1125.37	2.47729
1128.74	0.161255
1132.12	1.25308
1135.49	1.53549
1138.87	1.70059
1142.24	3.54663
1145.62	1.12918
1148.99	5.03
1152.37	2.84094
1155.74	2.83639
1159.12	6.98099
1162.49	4.06482
1165.86	5.01456
1169.24	2.62732
1172.61	6.50967
1175.99	5.00272
1179.36	8.33176
1182.74	7.76144
1186.11	1.65659
1189.49	12.1364
1192.86	8.60565
1196.24	6.18982
1199.61	7.31683
1202.99	6.16669
1206.36	10.0697
1209.74	4.07461
1213.11	9.80145
1216.49	5.23187
1219.86	6.08527
1223.24	3.27673
1226.61	5.41785
1229.99	6.06869
1233.36	4.04358
1236.74	5.32663
1240.11	0.790619
1243.48	5.6322
1246.86	14.9413
1250.23	3.61871
1253.61	9.12472
1256.98	8.37076
1260.36	2.71045
1263.73	0.765533
1267.11	2.85141
1270.48	8.65112
1273.86	2.57333
1277.23	0.007416
1280.61	4.00735
1283.98	6.7262
