Measurement: Raman, 780 nm, unoriented, Raman Data Processed
Mineral: Witherite
Rruff sample: R050148
Ideal chemistry: BaCO_3_
Locality: Settlingstones mine, Fourstones, Northumberland, England
Source: Jim McGlasson
Description: Tan colored crystal fragment
Measured chemistry: (Ba_0.96_Sr_0.04_)CO_3_
Raman shift (cm-1)	intensity
98.288	0
101.181	64.0732
104.073	7.03809
106.966	30.9636
109.859	176.089
112.751	499.125
115.644	857.495
118.537	1013.99
121.43	1267.71
124.322	1662.18
127.215	2226.48
130.108	3162.48
133	4476.79
135.893	5156.09
138.786	4427.84
141.679	4089.52
144.571	4389.67
147.464	4983.5
150.357	5894.53
153.249	6611.73
156.142	4479.79
159.035	2709.09
161.927	1424.19
164.82	564.254
167.713	223.041
170.606	92.7481
173.498	47.9622
176.391	46.3616
179.284	87.5703
182.176	47.7266
185.069	24.3232
187.962	23.6606
190.854	3.31494
193.747	46.561
196.64	108.559
199.532	132.7
202.425	200.091
205.318	317.564
208.211	400.991
211.103	498.238
213.996	607.101
216.889	717.904
219.781	760.087
222.674	768.871
225.567	746.992
228.459	563.793
231.352	347.059
234.245	214.02
237.137	132.965
240.03	87.5854
242.923	57.6245
245.816	26.0845
248.708	8.58325
251.601	2.52368
254.494	4.60547
257.386	12.5586
260.279	11.3867
263.172	1.95776
266.065	5.32007
268.957	13.5117
271.85	24.9148
274.743	26.1821
277.635	37.1721
280.528	38.0168
283.421	35.9175
286.313	30.9011
289.206	34.6111
292.099	43.9429
294.991	48.4211
297.884	59.0142
300.777	77.6143
303.67	88.4334
306.562	106.869
309.455	115.188
312.348	121.436
315.24	119.809
318.133	109.775
321.026	96.1748
323.918	75.4959
326.811	52.3606
329.704	38.344
332.597	28.4168
335.489	10.8584
338.382	11.7371
341.275	11.2432
344.167	9.0791
347.06	0.73877
349.953	0.380859
352.846	2.62439
355.738	5.08545
358.631	0.133667
361.524	0.88562
364.416	5.10217
367.309	5.20715
370.202	3.67114
373.094	16.3661
375.987	26.5646
378.88	39.7042
381.772	36.208
384.665	43.6754
387.558	54.6755
390.451	47.7932
393.343	47.506
396.236	50.3851
399.129	53.6777
402.021	53.0804
404.914	60.8603
407.807	78.2139
410.7	87.0746
413.592	100.216
416.485	106.727
419.378	117.893
422.27	124.182
425.163	125.534
428.056	120.873
430.948	113.453
433.841	95.2241
436.734	75.3984
439.627	57.9686
442.519	35.8494
445.412	22.0171
448.305	14.025
451.197	3.76013
454.09	2.27747
456.983	0.422363
459.875	6.86206
462.768	2.91296
465.661	0.690186
468.553	4.58533
471.446	3.27039
474.339	1.06763
477.232	2.59119
480.124	9.24829
483.017	6.21729
485.91	1.08923
488.802	7.31775
491.695	12.9876
494.588	14.72
497.481	12.2246
500.373	19.318
503.266	16.8163
506.159	15.8215
509.051	22.8971
511.944	19.5724
514.837	15.252
517.729	19.5769
520.622	13.5747
523.515	17.5525
526.408	8.07227
529.3	7.68579
532.193	7.55676
535.086	0.030518
537.978	1.88879
540.871	0.213135
543.764	4.703
546.656	0.496338
549.549	1.04382
552.442	0.93335
555.335	3.77844
558.227	5.14917
561.12	5.49341
564.013	2.32178
566.905	0.341797
569.798	0.408081
572.691	0.173706
575.583	2.12598
578.476	12.5801
581.369	2.04504
584.261	2.4209
587.154	6.02881
590.047	1.09473
592.94	6.09375
595.832	4.94812
598.725	0.769165
601.618	7.78528
604.51	5.98596
607.403	5.54333
610.296	4.37488
613.188	6.74939
616.081	6.44678
618.974	7.41785
621.867	5.20239
624.759	7.95276
627.652	7.18787
630.545	14.3378
633.437	6.0166
636.33	8.03967
639.223	6.70117
642.115	4.59399
645.008	0.411377
647.901	3.50269
650.794	3.47083
653.686	1.01904
656.579	1.58179
659.472	1.31226
662.364	3.48279
665.257	2.29968
668.15	8.16016
671.043	30.3793
673.935	129.587
676.828	169.705
679.721	206.637
682.613	280.398
685.506	364.315
688.399	530.823
691.291	532.125
694.184	237.421
697.077	150.163
699.97	143.037
702.862	56.3079
705.755	23.262
708.648	27.6266
711.54	16.7784
714.433	11.8553
717.326	8.67236
720.218	6.1626
723.111	5.28955
726.004	7.78516
728.896	5.80322
731.789	5.91833
734.682	2.46692
737.575	5.63318
740.467	9.54468
743.36	3.52856
746.253	8.18164
749.145	7.31372
752.038	7.198
754.931	6.97229
757.823	4.2655
760.716	4.92004
763.609	3.0321
766.502	0.718262
769.394	7.82178
772.287	2.36682
775.18	2.34399
778.072	3.18909
780.965	6.8949
783.858	10.8967
786.75	6.26074
789.643	8.72559
792.536	8.67053
795.429	10.9895
798.321	3.58044
801.214	2.7699
804.107	3.77551
806.999	5.69299
809.892	10.7389
812.785	9.10071
815.678	6.45129
818.57	3.43603
821.463	5.35547
824.356	7.89319
827.248	7.24622
830.141	1.98022
833.034	1.28735
835.926	5.40662
838.819	4.22107
841.712	5.93811
844.605	2.46912
847.497	5.30029
850.39	2.65967
853.283	4.20276
856.175	0.239014
859.068	1.42029
861.961	0.022461
864.853	0.108398
867.746	10.3276
870.639	2.60986
873.532	6.42102
876.424	7.28296
879.317	4.17127
882.21	11.9761
885.102	13.9003
887.995	19.2212
890.888	20.973
893.78	17.8281
896.673	12.955
899.566	15.0242
902.458	11.0647
905.351	12.6868
908.244	9.13684
911.137	5.91565
914.029	8.66895
916.922	9.19348
919.815	0.520142
922.707	3.2738
925.6	1.9325
928.493	2.75061
931.385	0.853149
934.278	3.75867
937.171	0.473877
940.063	2.34906
942.956	1.57947
945.849	0.94104
948.742	4.49292
951.634	2.84552
954.527	1.46991
957.42	9.1687
960.312	6.91089
963.205	7.41693
966.098	7.25952
968.99	7.36926
971.883	7.38037
974.776	10.3951
977.669	13.4296
980.561	11.2272
983.454	11.9215
986.347	22.769
989.239	4.96765
992.132	18.2253
995.025	7.0116
997.918	3.34228
1000.81	7.29004
1003.7	4.3324
1006.6	1.93054
1009.49	5.34412
1012.38	6.81018
1015.27	0.920532
1018.17	1.76978
1021.06	0.876343
1023.95	6.89563
1026.85	8.65637
1029.74	9.67627
1032.63	18.6499
1035.52	29.791
1038.41	49.6833
1041.31	62.8939
1044.2	206.926
1047.09	1253.26
1049.99	1233.19
1052.88	1821.41
1055.77	2276.25
1058.66	2972.7
1061.56	2407.27
1064.45	254.149
1067.34	129.204
1070.23	120.183
1073.13	116.752
1076.02	114.075
1078.91	109.159
1081.81	106.978
1084.7	103.583
1087.59	100.98
1090.48	96.1637
1093.38	90.9957
1096.27	97.1348
1099.16	89.7795
1102.06	88.9128
1104.95	77.8141
1107.84	59.4504
1110.73	52.6805
1113.62	36.8453
1116.52	20.9093
1119.41	6.26941
1122.3	4.43018
1125.2	13.889
1128.09	5.68884
1130.98	7.17871
1133.87	17.1706
1136.77	34.6681
1139.66	39.3986
1142.55	48.9092
1145.44	50.1572
1148.34	57.1877
1151.23	56.0708
1154.12	40.4658
1157.02	31.3984
1159.91	39.3027
1162.8	44.8232
1165.69	63.5979
1168.59	60.6274
1171.48	48.6577
1174.37	38.9778
1177.27	26.2495
1180.16	2.89331
