Measurement: Raman, 532 nm, unoriented, Raman Data Processed
Mineral: Witherite
Rruff sample: R050148
Ideal chemistry: BaCO_3_
Locality: Settlingstones mine, Fourstones, Northumberland, England
Source: Jim McGlasson
Description: Tan colored crystal fragment
Measured chemistry: (Ba_0.96_Sr_0.04_)CO_3_
Raman shift (cm-1)	intensity
107.728	0
111.102	33.4797
114.477	509.541
117.852	1825.1
121.227	2883.36
124.602	3705.95
127.976	4931.55
131.351	7631.18
134.726	12000.4
138.101	11820.6
141.476	7478.04
144.85	6716.89
148.225	7509.13
151.6	10048.9
154.975	11638
158.35	10069.3
161.725	8119.18
165.099	3628.62
168.474	2037.64
171.849	1414.59
175.224	1168.95
178.599	1187.98
181.973	1178.88
185.348	651.11
188.723	431.431
192.098	296.83
195.473	333.652
198.847	313.761
202.222	299.608
205.597	391.347
208.972	539.895
212.347	864.548
215.722	1373.87
219.096	1796.7
222.471	1750.53
225.846	1786.02
229.221	1170.68
232.596	563.191
235.97	235.6
239.345	100.435
242.72	41.9688
246.095	35.21
249.47	39.4619
252.845	79.8447
256.219	63.168
259.594	34.7402
262.969	20.5273
266.344	34.457
269.719	37.9551
273.094	3.4082
276.468	23.2207
279.843	27.2549
283.218	41.4629
286.593	75.5703
289.967	108.087
293.342	147.712
296.717	159.415
300.092	151.789
303.467	162.245
306.842	198.78
310.216	205.658
313.591	181.805
316.966	159.085
320.341	195.197
323.716	182.433
327.091	145.419
330.465	141.207
333.84	140.111
337.215	122.603
340.59	131.816
343.965	142.967
347.339	105.953
350.714	131.571
354.089	123.516
357.464	88.1914
360.839	87.3467
364.214	141.416
367.588	134.014
370.963	181.947
374.338	162.525
377.713	135.795
381.088	103.786
384.462	75.5273
387.837	93.0586
391.212	99.5664
394.587	31.042
397.962	36.8115
401.337	29.8096
404.711	44.2891
408.086	62.5938
411.461	91.0361
414.836	69.7139
418.211	32.1025
421.585	17.0928
424.96	43.918
428.335	41.4482
431.71	93.792
435.085	45.54
438.459	42.7666
441.834	33.9424
445.209	49.748
448.584	3.29394
451.959	23.2285
455.334	29.3105
458.708	19.6162
462.083	43.7539
465.458	19.1748
468.833	23.9062
472.208	48.7705
475.582	51.0654
478.957	45.8975
482.332	73.8135
485.707	73.1172
489.082	52.9307
492.457	61.6602
495.831	14.7256
499.206	9.79883
502.581	52.9307
505.956	50.3682
509.331	74.4189
512.705	89.5254
516.08	75.6006
519.455	74.6904
522.83	4.28027
526.205	7.24121
529.58	38.9775
532.954	15.9355
536.329	29.9453
539.704	29.3838
543.079	32.2773
546.454	62.6299
549.828	20.7129
553.203	46.5322
556.578	19.7334
559.953	15.1299
563.328	34.4219
566.702	43.2412
570.077	50.3086
573.452	42.5264
576.827	50.1211
580.202	37.0469
583.577	36.1885
586.951	24.1055
590.326	41.2432
593.701	35.1641
597.076	35.7861
600.451	55.3359
603.825	68.8438
607.2	30.1016
610.575	14.5234
613.95	30.8906
617.325	7.35644
620.699	3.92578
624.074	8.63965
627.449	2.65234
630.824	25.4316
634.199	10.2168
637.574	28.9287
640.948	21.2393
644.323	42.7715
647.698	59.5059
651.073	64.1416
654.448	2.20996
657.822	72.7256
661.197	54.3428
664.572	47.3672
667.947	24.3691
671.322	23.1025
674.697	142.903
678.071	366.223
681.446	483.693
684.821	990.058
688.196	2260.99
691.571	3512.23
694.946	979.821
698.32	363.416
701.695	305.142
705.07	114.17
708.445	60.2246
711.819	31.5693
715.194	44.7295
718.569	54.3565
721.944	22.9082
725.319	11.169
728.694	30.5664
732.068	34.1299
735.443	33.916
738.818	94.0029
742.193	135.031
745.568	90.0762
748.942	104.999
752.317	81.8926
755.692	67.3008
759.067	11.4795
762.442	18.2031
765.817	6.625
769.191	36.8477
772.566	79.0078
775.941	54.9492
779.316	69.916
782.691	66.1768
786.066	59.0264
789.44	69.7559
792.815	55.2197
796.19	51.1377
799.565	29.667
802.94	29.0439
806.314	23.9248
809.689	51.9326
813.064	6.79688
816.439	30.166
819.814	30.7441
823.188	98.791
826.563	21.709
829.938	6.21582
833.313	6.91113
836.688	22.0928
840.063	48.6162
843.437	76.1328
846.812	9.49609
850.187	6.48242
853.562	29.0234
856.937	62.8408
860.312	22.5322
863.686	24.999
867.061	61.375
870.436	44.8906
873.811	21.8066
877.186	42.5518
880.56	18.7461
883.935	61.4805
887.31	48.7578
890.685	60.8037
894.06	55.0215
897.434	44.0557
900.809	26.7686
904.184	37.501
907.559	75.2246
910.934	32.7539
914.308	38.7363
917.683	27.0039
921.058	53.8105
924.433	81.6914
927.808	62.2158
931.183	63.8438
934.557	46.5703
937.932	85.6211
941.307	92.7002
944.682	62.4922
948.057	56.8428
951.432	8.94141
954.806	22.4287
958.181	33.2168
961.556	21.374
964.931	26.6592
968.306	31.9287
971.68	17.4463
975.055	3.93164
978.43	7.55762
981.805	107.783
985.18	80.7617
988.554	38.0801
991.929	39.0303
995.304	5.96289
998.679	9.125
1002.05	7.43945
1005.43	13.8066
1008.8	50.8281
1012.18	27.0918
1015.55	52.7617
1018.93	47.4414
1022.3	85.8769
1025.68	117.15
1029.05	122.518
1032.43	116.754
1035.8	123.551
1039.18	256.008
1042.55	128.135
1045.93	338.369
1049.3	2133.95
1052.68	3051.34
1056.05	5228.38
1059.43	19071.9
1062.8	12947.5
1066.17	614.518
1069.55	240.988
1072.92	130.523
1076.3	45.2285
1079.67	48.0254
1083.05	28.4805
1086.42	15.2598
1089.8	35.7637
1093.17	60.1875
1096.55	48.8555
1099.92	38.625
1103.3	65.1484
1106.67	46.4297
1110.05	24.5254
1113.42	6.47461
1116.8	10.9199
1120.17	27.0195
1123.55	80.3887
1126.92	29.748
1130.3	81.2949
1133.67	41.9082
1137.05	9.38867
1140.42	26.4414
1143.8	24.6641
1147.17	1.64648
1150.55	21.8008
1153.92	39.9922
1157.3	64.3809
1160.67	69.7402
1164.05	54.8164
1167.42	32.8398
1170.8	39.5137
1174.17	38.1309
1177.54	49.3594
1180.92	68.6758
1184.29	80.2246
1187.67	70.5781
1191.04	97.0273
1194.42	99.2481
1197.79	57.3848
1201.17	46.5664
1204.54	68.6172
1207.92	96.0469
1211.29	89.0078
1214.67	2.75391
1218.04	41.3984
1221.42	74.1309
1224.79	73.7363
1228.17	70.9512
1231.54	16.9141
1234.92	47.1406
1238.29	5.14648
1241.67	16.5508
1245.04	0.503906
1248.41	41.9805
1251.79	83.7344
1255.16	83.3047
1258.54	16.1309
1261.91	26.4512
1265.29	91.8789
1268.66	24.3984
1272.04	50.7168
1275.41	47.7441
1278.79	64.1934
1282.16	59.3555
1285.54	90.7266
1288.91	19.7246
1292.29	26.5879
1295.66	42.1055
1299.04	11.6895
1302.41	58.6133
