Measurement: Raman, 780 nm, unoriented, Raman Data Processed
Mineral: Witherite
Rruff sample: R040040
Ideal chemistry: BaCO_3_
Locality: Cave-in-Rock, Hardin County, Illinois, USA
Source: University of Arizona Mineral Museum
Description: Tan colored prismatic group of columnar crystals
Measured chemistry: (Ba_0.98_Sr_0.02_)_Î£=1_CO_3_; CO_2_ estimated by difference
Raman shift (cm-1)	intensity
116.149	0
119.523	171.555
122.898	891.148
126.273	2004.98
129.648	3570.62
133.023	6469.12
136.398	9669.9
139.772	6447.61
143.147	4067.42
146.522	4457.31
149.897	6523.13
153.272	10416.9
156.646	8930.23
160.021	4913.34
163.396	2085.81
166.771	757.387
170.146	179.551
173.52	71.3047
176.895	104.426
180.27	207.547
183.645	93.8047
187.02	128.438
190.395	114.129
193.769	104.242
197.144	98.043
200.519	153.672
203.894	12.2461
207.269	217.902
210.643	164.191
214.018	396.144
217.393	592.637
220.768	866.543
224.143	980.144
227.518	1125.33
230.892	806.871
234.267	559.797
237.642	243.68
241.017	125.594
244.392	74.1523
247.767	5.88281
251.141	11.207
254.516	45.9727
257.891	109.418
261.266	37.918
264.64	11.3867
268.015	201.578
271.39	181.66
274.765	203.266
278.14	242.106
281.515	296.273
284.889	293.316
288.264	334.547
291.639	150.637
295.014	157.606
298.389	131.684
301.764	262.309
305.138	170.031
308.513	474.332
311.888	254.914
315.263	264.109
318.638	396.301
322.012	236
325.387	393.43
328.762	422.727
332.137	449.906
335.512	264.598
338.887	467.336
342.261	481.727
345.636	366.504
349.011	372.555
352.386	525.637
355.761	527.715
359.135	576.891
362.51	380.402
365.885	252.988
369.26	425.516
372.635	169.934
376.01	316.07
379.384	276.004
382.759	162.383
386.134	290.383
389.509	228.588
392.884	121.457
396.258	183.551
399.633	34.8105
403.008	212.043
406.383	83.1641
409.758	39.6953
413.132	238.168
416.507	99.1074
419.882	172.102
423.257	111.027
426.632	47.5684
430.007	267.807
433.381	114.049
436.756	89.6914
440.131	73.6816
443.506	107.356
446.881	75.293
450.255	57.2832
453.63	43.6035
457.005	71.0019
460.38	84.4941
463.755	213.381
467.13	67.8633
470.504	48.0605
473.879	27.6602
477.254	193.65
480.629	43.7539
484.004	2.36133
487.378	12.6406
490.753	46.1309
494.128	226.455
497.503	161.545
500.878	217.994
504.252	71.7578
507.627	129.107
511.002	146.172
514.377	194.69
517.752	12.3867
521.127	117.525
524.501	118.764
527.876	181.215
531.251	192.486
534.626	5.53516
538.001	44.3457
541.375	25.3926
544.75	99.9277
548.125	64.4629
551.5	30.8848
554.875	129.102
558.25	42.2852
561.624	286.406
564.999	149.488
568.374	207.812
571.749	117.592
575.124	96.8652
578.499	162.381
581.873	100.471
585.248	212.316
588.623	80.7891
591.998	107.758
595.373	110.023
598.747	170.832
602.122	99.2207
605.497	96.416
608.872	3.49023
612.247	133.711
615.621	202.578
618.996	97.3496
622.371	137.565
625.746	61.9609
629.121	56.332
632.495	77.834
635.87	159.672
639.245	54.3398
642.62	22.0371
645.995	24.666
649.37	196.244
652.744	133.633
656.119	186.918
659.494	125.188
662.869	75.084
666.244	105.766
669.619	152.998
672.993	140.006
676.368	168.434
679.743	182.184
683.118	295.025
686.493	474.603
689.867	817.902
693.242	762.955
696.617	442.857
699.992	463.631
703.367	315.082
706.741	179.029
710.116	206.934
713.491	157.787
716.866	56.9902
720.241	131.328
723.616	82.5781
726.99	107.439
730.365	61.1992
733.74	158.68
737.115	90.8359
740.49	29.2051
743.865	50.4844
747.239	23.0352
750.614	51.875
753.989	92.3203
757.364	42.1719
760.739	4.125
764.113	116.357
767.488	91.5449
770.863	102.475
774.238	42.8223
777.613	44.2871
780.987	12.4219
784.362	69.791
787.737	63.6855
791.112	133.674
794.487	71.3926
797.862	73.8223
801.236	130.66
804.611	41.3691
807.986	96.6055
811.361	25.7754
814.736	9.44922
818.111	120.291
821.485	67.6387
824.86	92.9492
828.235	120.193
831.61	122.01
834.985	82.9356
838.359	228.779
841.734	130.185
845.109	198.047
848.484	121.232
851.859	82.0664
855.233	160.33
858.608	102.049
861.983	64.2109
865.358	53.4668
868.733	95.1113
872.107	110.516
875.482	131.33
878.857	66.5352
882.232	126.647
885.607	91.9981
888.982	80.3398
892.356	47.0586
895.731	171.455
899.106	126.211
902.481	67.2695
905.856	203.414
909.231	125.469
912.605	97.0508
915.98	154.904
919.355	119.789
922.73	52.3496
926.105	56.5625
929.479	147.627
932.854	194.803
936.229	66.9492
939.604	99.0176
942.979	118.287
946.354	122.141
949.728	86.2383
953.103	116.127
956.478	188.463
959.853	160.867
963.227	72.2285
966.602	74.8633
969.977	65.8242
973.352	104.451
976.727	23.082
980.102	79.2695
983.476	11.541
986.851	140.043
990.226	2.83398
993.601	25.2871
996.976	35.3613
1000.35	36.0938
1003.73	66.4277
1007.1	116.635
1010.48	27.7969
1013.85	81.3867
1017.23	44.6777
1020.6	47.1914
1023.97	209.201
1027.35	150.342
1030.72	139.295
1034.1	122.311
1037.47	236.852
1040.85	129.547
1044.22	191.822
1047.6	217.172
1050.97	420.092
1054.35	1372.91
1057.72	3798.2
1061.1	6212.53
1064.47	1368.97
1067.85	181.585
1071.22	207.205
1074.6	145.11
1077.97	150.323
1081.35	152.827
1084.72	78.4414
1088.1	156.963
1091.47	109.766
1094.85	156.125
1098.22	92.2363
1101.6	62.6182
1104.97	35.2764
1108.35	32.248
1111.72	103.519
1115.09	34.8525
1118.47	8.5957
1121.84	28.3379
1125.22	81.4131
1128.59	25.6045
1131.97	18.0186
1135.34	63.4609
1138.72	49.0537
1142.09	152.526
1145.47	213.185
1148.84	121.831
1152.22	124.656
1155.59	75.5606
1158.97	201.056
1162.34	176.942
1165.72	172.225
1169.09	186.914
1172.47	503.735
1175.84	181.41
1179.22	190.538
1182.59	159.234
1185.96	189.287
1189.34	105.402
1192.71	145.769
1196.09	179.504
1199.46	102.919
1202.84	128.898
1206.21	78.8828
1209.59	141.944
1212.96	134.123
1216.34	166.091
1219.71	6.9541
1223.09	14.708
1226.46	114.947
1229.84	152.068
1233.21	91.9248
1236.59	78.4678
1239.96	94.2695
1243.34	44.377
1246.71	81.2109
1250.09	105.529
1253.46	144.364
1256.84	84.7676
1260.21	21.2178
1263.59	42.3643
1266.96	2.12109
1270.34	51.7734
1273.71	37.3525
1277.09	0
