Measurement: Raman, 514 nm, unoriented, Raman Data Processed
Mineral: Witherite
Rruff sample: R050148
Ideal chemistry: BaCO_3_
Locality: Settlingstones mine, Fourstones, Northumberland, England
Source: Jim McGlasson
Description: Tan colored crystal fragment
Measured chemistry: (Ba_0.96_Sr_0.04_)CO_3_
Raman shift (cm-1)	intensity
98.947	0
103.124	24.14
107.3	48.418
111.473	79.629
115.644	223.229
119.813	432.448
123.981	1081.73
128.146	3215.36
132.309	7546.4
136.47	6838.46
140.63	3728.98
144.787	4613.43
148.942	9318.57
153.096	11460.4
157.247	6487.46
161.396	2664.84
165.544	997.825
169.689	474.417
173.833	406.61
177.974	550.059
182.114	356.962
186.251	155.564
190.387	178.379
194.52	310.894
198.652	198.268
202.782	165.395
206.909	245.996
211.035	579.999
215.159	1038.19
219.281	1313.23
223.4	1519.7
227.518	1109.4
231.634	587.473
235.748	329.693
239.86	201.189
243.97	160.545
248.079	39.225
252.185	120.848
256.289	57.598
260.391	48.438
264.492	17.962
268.59	15.672
272.687	18.836
276.781	58.839
280.874	45.791
284.964	12.567
289.053	8.809
293.14	55.158
297.225	114.35
301.308	26.288
305.389	6.772
309.468	45.433
313.545	55.096
317.62	7.83
321.693	71.312
325.765	12.562
329.834	21.253
333.902	15.136
337.967	37.472
342.031	96.65
346.093	24.795
350.153	59.969
354.21	62.067
358.267	10.084
362.321	137.083
366.373	115.026
370.423	6.023
374.471	11.497
378.518	145.927
382.563	130.891
386.605	128.415
390.646	62.134
394.685	109.99
398.722	91.521
402.757	44.037
406.79	148.997
410.821	157.648
414.851	199.279
418.878	64.672
422.904	55.63
426.927	97.136
430.949	2.112
434.969	191.913
438.987	121.688
443.003	88.027
447.018	75.793
451.03	98.458
455.041	5.477
459.049	16.018
463.056	99.144
467.061	194.899
471.064	144.521
475.065	12.626
479.064	187.75
483.062	88.487
487.057	98.722
491.051	48.49
495.043	103.359
499.032	144.008
503.02	103.119
507.007	53.645
510.991	123.151
514.973	126.805
518.954	221.19
522.933	137.889
526.91	169.865
530.885	55.689
534.858	66.103
538.829	129.643
542.799	172.056
546.766	116.587
550.732	58.611
554.696	6.647
558.658	111.734
562.618	201.708
566.576	172.342
570.533	160.973
574.488	82.606
578.44	4.113
582.391	104.476
586.341	9.109
590.288	30.928
594.233	122.794
598.177	100.241
602.119	102.722
606.059	57.31
609.997	156.754
613.933	126.675
617.868	69.566
621.801	14.457
625.731	169.067
629.66	111.55
633.588	78.448
637.513	123.798
641.437	165.697
645.358	74.557
649.278	76.892
653.196	214.446
657.113	36.75
661.027	131.672
664.94	219.259
668.851	128.421
672.76	63.536
676.667	6.716
680.572	195.732
684.476	424.466
688.378	1939
692.278	953.815
696.176	431.115
700.072	567.401
703.967	86.924
707.86	61.992
711.751	23.536
715.64	255.874
719.527	159.749
723.413	143.775
727.297	168.087
731.179	62.051
735.059	49.052
738.937	69.328
742.814	194.771
746.689	141.541
750.562	69.358
754.433	149.04
758.303	150.604
762.17	75.655
766.036	19.057
769.901	153.207
773.763	245.362
777.624	20.698
781.482	114.561
785.339	42.526
789.195	128.955
793.048	51.294
796.9	111.775
800.75	7.147
804.598	249.538
808.445	71.058
812.289	134.551
816.132	73.182
819.973	94.021
823.813	71.67
827.65	103.798
831.486	135.874
835.32	34.318
839.152	54.664
842.983	159.093
846.812	4.479
850.639	157.531
854.464	13.096
858.288	111.402
862.11	100.592
865.93	55.032
869.748	94.143
873.564	103.148
877.379	41.349
881.192	117.388
885.004	70.138
888.813	197.933
892.621	164.869
896.427	21.404
900.232	208.766
904.034	183.43
907.835	273.456
911.634	152.241
915.432	63.924
919.227	174.49
923.021	152.385
926.813	47.083
930.604	187.439
934.393	155.348
938.18	327.028
941.965	221.815
945.749	165.901
949.53	117.753
953.311	216.572
957.089	129.45
960.866	178.356
964.641	212.424
968.414	148.255
972.185	28.267
975.955	159.52
979.723	240.25
983.49	330.065
987.254	241.637
991.017	141.894
994.779	222.147
998.538	203.784
1002.3	87.905
1006.05	271.155
1009.81	145.526
1013.56	346.803
1017.31	250.118
1021.06	242.229
1024.81	325.661
1028.55	287.37
1032.3	293.2
1036.04	334.993
1039.78	478.914
1043.52	340.33
1047.26	360.654
1050.99	499.351
1054.73	1266.15
1058.46	25859
1062.19	8312.22
1065.92	900.433
1069.65	339.575
1073.37	410.934
1077.1	385.028
1080.82	340.479
1084.54	381.394
1088.26	205.875
1091.97	59.376
1095.69	331.902
1099.4	202.848
1103.12	224.854
1106.83	21.971
1110.54	89.599
1114.24	145.354
1117.95	155.24
1121.65	67.64
1125.35	222.861
1129.06	13.918
1132.75	181.742
1136.45	116.74
1140.15	144.953
1143.84	15.811
1147.53	123.309
1151.22	11.764
1154.91	61.887
1158.6	30.307
1162.28	97.145
1165.97	239.115
1169.65	134.289
1173.33	178.08
1177.01	99.652
1180.69	78.893
1184.36	170.611
1188.04	199.973
1191.71	259.807
1195.38	150.4
1199.05	208.58
1202.71	220.459
1206.38	313.336
1210.04	191.287
1213.71	280.967
1217.37	187.014
1221.03	309.732
1224.68	229.426
1228.34	136.543
1231.99	233.176
1235.65	149.859
1239.3	253.988
1242.95	311.215
1246.59	340.834
1250.24	265.516
1253.88	194.979
1257.53	73.359
1261.17	145.836
1264.81	107.014
1268.45	263.025
1272.08	235.828
1275.72	165.648
1279.35	185.861
1282.98	225.918
1286.61	202.258
1290.24	175.914
1293.87	134.141
1297.49	106.482
1301.11	32.648
1304.73	78.678
1308.36	221.535
1311.97	80.48
1315.59	55.172
1319.2	15.457
1322.82	139.441
1326.43	130.25
1330.04	201.039
1333.65	52.07
1337.26	238.748
1340.86	158.746
1344.47	80.289
1348.07	312.305
1351.67	260.188
1355.27	329.533
1358.87	304.012
1362.46	229.623
1366.06	211.643
1369.65	294.631
1373.24	249.482
1376.83	301.256
1380.42	346.572
1384	358.213
1387.59	38.812
1391.17	278.916
1394.75	348.887
1398.33	160.518
1401.91	317.965
1405.49	354.508
1409.06	274.004
1412.64	441.83
1416.21	310.447
1419.78	823.713
1423.35	714.971
1426.91	487.35
1430.48	296.264
1434.05	355.051
1437.61	389.291
1441.17	494.803
1444.73	439.625
1448.29	370.291
1451.84	476.289
1455.4	411.67
1458.95	293.688
1462.5	101.48
1466.05	167.959
1469.6	258.014
1473.15	332.66
1476.69	197.553
1480.24	102.646
1483.78	233.805
1487.32	74.809
1490.86	129.186
1494.39	77.299
1497.93	54.865
1501.46	238.834
1505	0
