Measurement: Raman, 514 nm, unoriented, Raman Data Processed
Mineral: Witherite
Rruff sample: R040040
Ideal chemistry: BaCO_3_
Locality: Cave-in-Rock, Hardin County, Illinois, USA
Source: University of Arizona Mineral Museum
Description: Tan colored prismatic group of columnar crystals
Measured chemistry: (Ba_0.98_Sr_0.02_)_Î£=1_CO_3_; CO_2_ estimated by difference
Raman shift (cm-1)	intensity
115.644	0
119.813	86.871
123.981	232.377
128.146	1197.94
132.309	2137.21
136.47	1084.63
140.63	625.699
144.787	439.08
148.942	849.397
153.096	1989.34
157.247	4420.09
161.396	2831.57
165.544	789.873
169.689	236.784
173.833	186.054
177.974	233.403
182.114	38.852
186.251	7.039
190.387	2.357
194.52	20.536
198.652	47.617
202.782	4.388
206.909	120.388
211.035	181.631
215.159	405.742
219.281	710.706
223.4	993.75
227.518	651.312
231.634	261.08
235.748	160.999
239.86	83.983
243.97	87.173
248.079	22.511
252.185	51.021
256.289	33.422
260.391	28.711
264.492	41.313
268.59	1.2
272.687	65.056
276.781	89.935
280.874	1.073
284.964	53.027
289.053	9.532
293.14	74.554
297.225	31.045
301.308	1.758
305.389	18.604
309.468	54.557
313.545	78.646
317.62	91.16
321.693	111.105
325.765	57.007
329.834	64.912
333.902	147.92
337.967	150.051
342.031	79.154
346.093	107.119
350.153	77.653
354.21	114.174
358.267	96.554
362.321	39.555
366.373	122.78
370.423	147.763
374.471	65.954
378.518	134.167
382.563	142.394
386.605	132.305
390.646	85.551
394.685	95.886
398.722	229.34
402.757	81.834
406.79	49.977
410.821	92.536
414.851	81.229
418.878	88.482
422.904	205.128
426.927	188.452
430.949	44.063
434.969	163.044
438.987	151.659
443.003	117.234
447.018	141.922
451.03	63.085
455.041	173.014
459.049	78.011
463.056	93.777
467.061	78.334
471.064	33.991
475.065	121.051
479.064	109.064
483.062	69.734
487.057	249.781
491.051	156.873
495.043	176.947
499.032	99.384
503.02	145.805
507.007	220.832
510.991	20.841
514.973	79.017
518.954	188.434
522.933	132.485
526.91	82.474
530.885	16.426
534.858	17.371
538.829	130.308
542.799	0.241
546.766	133.148
550.732	87.655
554.696	177.843
558.658	229.905
562.618	38.95
566.576	182.708
570.533	151.578
574.488	41.448
578.44	49.344
582.391	164.4
586.341	88.296
590.288	222.732
594.233	67.741
598.177	118.56
602.119	221.48
606.059	114.796
609.997	210.631
613.933	146.962
617.868	128.735
621.801	223.277
625.731	62.793
629.66	280.243
633.588	359.602
637.513	96.421
641.437	162.721
645.358	14.032
649.278	65.191
653.196	40.767
657.113	307.879
661.027	327.089
664.94	220.531
668.851	184.565
672.76	69.7
676.667	108.582
680.572	153.602
684.476	396.301
688.378	1884.13
692.278	1946.96
696.176	441.958
700.072	254.27
703.967	137.791
707.86	255.478
711.751	282.528
715.64	39.784
719.527	120.587
723.413	150.776
727.297	70.878
731.179	211.002
735.059	158.093
738.937	291.762
742.814	67.202
746.689	17.04
750.562	48.597
754.433	18.534
758.303	2.662
762.17	142.473
766.036	30.236
769.901	17.866
773.763	152.402
777.624	232.904
781.482	159.379
785.339	184.194
789.195	69.562
793.048	143.008
796.9	200.797
800.75	29.047
804.598	54.391
808.445	163.797
812.289	103.066
816.132	61.254
819.973	84.851
823.813	187.316
827.65	219.566
831.486	205.769
835.32	59.193
839.152	251.652
842.983	396.253
846.812	248.858
850.639	161.704
854.464	56.304
858.288	291.965
862.11	145.987
865.93	228.24
869.748	258.456
873.564	311.24
877.379	166.625
881.192	163.974
885.004	119.34
888.813	13.32
892.621	236.82
896.427	190.074
900.232	233.499
904.034	118.601
907.835	135.577
911.634	221.056
915.432	234.134
919.227	246.536
923.021	159.031
926.813	174.942
930.604	108.311
934.393	90.544
938.18	71.428
941.965	128.538
945.749	24.634
949.53	142.555
953.311	221.215
957.089	288.816
960.866	163.497
964.641	74.825
968.414	312.635
972.185	149.584
975.955	205.05
979.723	83.744
983.49	56.802
987.254	258.577
991.017	337.261
994.779	312.606
998.538	415.054
1002.3	234.897
1006.05	247.198
1009.81	339.229
1013.56	405.094
1017.31	186.445
1021.06	68.422
1024.81	185.963
1028.55	401.844
1032.3	230.396
1036.04	410.703
1039.78	599.102
1043.52	486.047
1047.26	372.129
1050.99	482.123
1054.73	1044.34
1058.46	12007.9
1062.19	17282.3
1065.92	835.529
1069.65	493.742
1073.37	399.93
1077.1	319.561
1080.82	277.801
1084.54	11.678
1088.26	171.512
1091.97	209.674
1095.69	13.736
1099.4	162.232
1103.12	24.52
1106.83	169.789
1110.54	232.477
1114.24	20.916
1117.95	117.875
1121.65	71.975
1125.35	128.748
1129.06	76.404
1132.75	123.137
1136.45	51.943
1140.15	278.041
1143.84	83.842
1147.53	137.941
1151.22	9.875
1154.91	23.914
1158.6	126.312
1162.28	223.742
1165.97	135.02
1169.65	158.947
1173.33	29.182
1177.01	261.475
1180.69	180.312
1184.36	312.742
1188.04	131.625
1191.71	285.459
1195.38	193.914
1199.05	383.898
1202.71	254.652
1206.38	399.977
1210.04	176.973
1213.71	231.619
1217.37	288.031
1221.03	352.172
1224.68	90.977
1228.34	162.945
1231.99	230.938
1235.65	260.373
1239.3	365.549
1242.95	402.184
1246.59	180.318
1250.24	17.777
1253.88	126.504
1257.53	202.838
1261.17	64.477
1264.81	160.873
1268.45	263.209
1272.08	22.906
1275.72	65.65
1279.35	128.035
1282.98	121.428
1286.61	220.787
1290.24	82.375
1293.87	29.277
1297.49	93.098
1301.11	67.352
1304.73	64.779
1308.36	51.816
1311.97	80.316
1315.59	155.721
1319.2	12.76
1322.82	74.992
1326.43	47.252
1330.04	47.059
1333.65	175.09
1337.26	65.107
1340.86	286.605
1344.47	306.553
1348.07	296.924
1351.67	420.275
1355.27	433.057
1358.87	402.293
1362.46	387.377
1366.06	362.588
1369.65	347.748
1373.24	436.197
1376.83	252.299
1380.42	375.393
1384	265.904
1387.59	348.715
1391.17	378.639
1394.75	420.83
1398.33	593.379
1401.91	263.824
1405.49	453.299
1409.06	270.957
1412.64	393.125
1416.21	551.012
1419.78	637.623
1423.35	1160.65
1426.91	606.426
1430.48	421.93
1434.05	557.613
1437.61	763.918
1441.17	517.334
1444.73	556.535
1448.29	585.879
1451.84	432.035
1455.4	628.658
1458.95	694.686
1462.5	691.498
1466.05	719.219
1469.6	557.346
1473.15	489.299
1476.69	575.648
1480.24	523.07
1483.78	413.617
1487.32	464.533
1490.86	394.043
1494.39	418.479
1497.93	543.162
1501.46	60.449
1505	98.654
1508.53	413.084
1512.06	401.568
1515.59	424.773
1519.11	158.068
1522.64	113.293
1526.16	0.902
