Measurement: Raman, 532 nm, unoriented, Raman Data Processed
Mineral: Witherite
Rruff sample: R040040
Ideal chemistry: BaCO_3_
Locality: Cave-in-Rock, Hardin County, Illinois, USA
Source: University of Arizona Mineral Museum
Description: Tan colored prismatic group of columnar crystals
Measured chemistry: (Ba_0.98_Sr_0.02_)_Î£=1_CO_3_; CO_2_ estimated by difference
Raman shift (cm-1)	intensity
129.77	0
133.144	3401.7
136.519	9708.61
139.894	4076.3
143.269	1981.66
146.644	3456.37
150.018	8049.94
153.393	17194.1
156.768	11390.7
160.143	6522.85
163.518	2232.33
166.893	336.81
170.267	188.027
173.642	260.963
177.017	0.537109
180.392	689.981
183.767	110.611
187.142	256.19
190.516	36.3652
193.891	314.506
197.266	644.43
200.641	616.135
204.016	736.941
207.39	1087.44
210.765	1255.62
214.14	1655.45
217.515	1985.77
220.89	2477.39
224.264	2978.6
227.639	2800.02
231.014	1955.92
234.389	1344.23
237.764	994.305
241.138	819.098
244.513	640.445
247.888	517.045
251.263	444.059
254.638	461.611
258.013	441.215
261.387	308.316
264.762	398.519
268.137	447.539
271.512	359.736
274.887	304.096
278.262	198.037
281.636	181.982
285.011	82.332
288.386	164.117
291.761	119.945
295.136	91.4414
298.51	42.8164
301.885	43.7637
305.26	56.9727
308.635	144.461
312.01	138.545
315.385	18.3691
318.759	12.5957
322.134	3.42773
325.509	6.08008
328.884	97.4863
332.259	2.41016
335.633	229.203
339.008	104.113
342.383	26.0117
345.758	45.4004
349.133	49.502
352.507	181.676
355.882	125.238
359.257	83.0254
362.632	59.6641
366.007	69.3086
369.382	5.35547
372.756	74.5059
376.131	113.609
379.506	125.248
382.881	217.316
386.256	183.078
389.63	17.6289
393.005	61.5898
396.38	101.027
399.755	61.9316
403.13	14.7422
406.505	14.0117
409.879	52.0371
413.254	133.668
416.629	68.7148
420.004	148.893
423.379	97.5742
426.753	19.8848
430.128	156.416
433.503	119.334
436.878	225.315
440.253	118.705
443.627	144.658
447.002	217.227
450.377	162.69
453.752	115.803
457.127	24.2168
460.502	148.627
463.876	90.418
467.251	187.891
470.626	101.869
474.001	34.4375
477.376	97.6465
480.75	118.422
484.125	191.254
487.5	123.24
490.875	95.7246
494.25	58.6895
497.625	88.6699
500.999	79.7207
504.374	119.894
507.749	59.8926
511.124	17.0977
514.499	101.139
517.873	0.736328
521.248	61.4727
524.623	30.6895
527.998	80.0078
531.373	186.533
534.747	263.932
538.122	91.4238
541.497	83.9102
544.872	154.326
548.247	67.709
551.622	13.0547
554.996	83.2695
558.371	60.6191
561.746	258.08
565.121	157.537
568.496	34.9277
571.87	106.102
575.245	96.3164
578.62	128.279
581.995	163.727
585.37	133.211
588.745	139.01
592.119	273.885
595.494	164.586
598.869	197.805
602.244	9.82227
605.619	14.377
608.994	37.3965
612.368	75.8418
615.743	106.555
619.118	151.578
622.493	98.8144
625.868	133.068
629.242	177.797
632.617	198.084
635.992	57.1445
639.367	86.4258
642.742	85.9375
646.116	118.295
649.491	51.8613
652.866	148.961
656.241	125.301
659.616	61.7559
662.99	76.2734
666.365	108.031
669.74	177.598
673.115	48.541
676.49	162.963
679.865	336.434
683.239	650.945
686.614	930.455
689.989	2136.61
693.364	1432.05
696.739	582.537
700.114	772.231
703.488	323.432
706.863	152.879
710.238	212.924
713.613	205.584
716.987	226.738
720.362	106.68
723.737	237.371
727.112	235.035
730.487	161.07
733.862	34.0703
737.236	49.4434
740.611	32.9414
743.986	166.533
747.361	132.555
750.736	120.555
754.111	76.2441
757.485	45.8594
760.86	64.7988
764.235	64.0117
767.61	260.451
770.985	133.26
774.359	118.238
777.734	96.6387
781.109	126.039
784.484	222.947
787.859	220.926
791.234	47.3086
794.608	127.627
797.983	238.998
801.358	264.975
804.733	181.035
808.108	166.258
811.482	339.92
814.857	53.041
818.232	228.9
821.607	127.76
824.982	68.3164
828.356	169.805
831.731	130.498
835.106	56.9746
838.481	60.1641
841.856	103.303
845.231	219.572
848.605	313.816
851.98	86.5254
855.355	53.2617
858.73	232.938
862.105	142.992
865.479	138.461
868.854	11.9551
872.229	13.4238
875.604	35.0723
878.979	149.684
882.354	107.117
885.728	237.787
889.103	88.4356
892.478	43.9238
895.853	181.191
899.228	120.58
902.602	23.9629
905.977	105.361
909.352	79.6094
912.727	15.6328
916.102	85.2969
919.476	86.082
922.851	180.414
926.226	113.129
929.601	16.957
932.976	34.1406
936.351	106.828
939.725	166.01
943.1	73.9004
946.475	137.227
949.85	114.127
953.225	147.565
956.6	176.42
959.974	78.1387
963.349	93.7949
966.724	98.4746
970.099	116.728
973.474	141.846
976.848	105.84
980.223	79.3008
983.598	49.6602
986.973	98.3242
990.348	9.39648
993.722	18.9922
997.097	88.2305
1000.47	235.678
1003.85	97.8945
1007.22	102.305
1010.6	2.22461
1013.97	79.7519
1017.35	116.277
1020.72	79.2481
1024.1	129.467
1027.47	50.3008
1030.85	135.283
1034.22	127.869
1037.6	237.213
1040.97	178.783
1044.35	174.922
1047.72	364.721
1051.09	1801.22
1054.47	4518.98
1057.84	10393.5
1061.22	21686.5
1064.59	1623.31
1067.97	190.051
1071.34	47.3945
1074.72	177.582
1078.09	83.6406
1081.47	151.623
1084.84	69.457
1088.22	26.7363
1091.59	10.3008
1094.97	0.589844
1098.34	137.805
1101.72	153.084
1105.09	6.00781
1108.47	135.984
1111.84	260.199
1115.22	200.103
1118.59	108.748
1121.96	107.424
1125.34	148.822
1128.71	306.045
1132.09	184.34
1135.46	330.09
1138.84	205.516
1142.21	154.908
1145.59	193.982
1148.96	173.541
1152.34	110.617
1155.71	110.986
1159.09	68.3438
1162.46	127.902
1165.84	3.23438
1169.21	62.6094
1172.59	160.016
1175.96	140.033
1179.34	151.043
1182.71	9.92969
1186.09	219.547
1189.46	247.551
1192.84	206.758
1196.21	18.834
1199.59	109.682
1202.96	2.81055
1206.34	46.5137
1209.71	69.5742
1213.09	166.365
1216.46	231.516
1219.84	133.498
1223.21	81.5508
1226.59	210.522
1229.96	82.2852
1233.33	10.748
1236.71	1.03125
1240.08	243.219
1243.46	282.994
1246.83	103.141
1250.21	237.818
1253.58	157.816
1256.96	167.332
1260.33	184.867
1263.71	191.463
1267.08	92.8379
1270.46	80.4922
1273.83	161.531
1277.21	111.762
1280.58	148.961
1283.96	49.8262
1287.33	75.9394
