Measurement: Raman, 532 nm, unoriented, Raman Data Processed
Mineral: Wittichenite
Rruff sample: R100013
Ideal chemistry: Cu_3_BiS_3_
Locality: Cattle Grid pit, Mt. Gunson mine, Pernatty Lagoon, South Australia
Source: William Pinch
Description: Sharp terminated brownish-black crystal
Raman shift (cm-1)	intensity
159.51	0
162.403	3.39219
165.296	0.068207
168.189	3.58953
171.081	2.51929
173.974	1.25093
176.867	0.82858
179.759	1.78493
182.652	1.24639
185.545	2.25432
188.437	3.05519
191.33	0.050608
194.223	2.58845
197.115	0.170966
200.008	1.708
202.901	2.24628
205.794	0.016214
208.686	1.08328
211.579	3.02531
214.472	0.344137
217.364	2.75017
220.257	3.36261
223.15	2.19803
226.042	6.13362
228.935	5.12208
231.828	7.10361
234.721	6.93232
237.613	11.6313
240.506	10.5662
243.399	11.9758
246.291	14.2026
249.184	16.4426
252.077	19.5635
254.97	24.1197
257.862	26.1006
260.755	24.877
263.648	29.5739
266.54	28.9134
269.433	35.5377
272.326	32.9385
275.218	39.0011
278.111	42.9903
281.004	49.0845
283.897	51.3211
286.789	60.1908
289.682	57.8622
292.575	51.3739
295.467	39.954
298.36	31.0524
301.253	24.2816
304.145	19.1059
307.038	17.1611
309.931	9.63073
312.824	8.7433
315.716	8.23481
318.609	5.99331
321.502	4.59863
324.394	5.71411
327.287	3.24478
330.18	3.49746
333.072	3.36918
335.965	2.90289
338.858	0.958353
341.75	2.54894
344.643	0.063059
347.536	1.28161
350.429	0.948091
353.321	0.110744
356.214	0.546126
359.107	1.07949
361.999	0.823962
364.892	1.7415
367.785	0.724689
370.678	1.49986
373.57	1.94486
376.463	1.6098
379.356	1.71106
382.248	0.586517
385.141	2.70017
388.034	2.94281
390.926	1.7102
393.819	1.59935
396.712	0.111089
399.604	2.7014
402.497	0.721761
405.39	2.01782
408.283	1.17164
411.175	2.17113
414.068	3.00258
416.961	2.88112
419.853	2.60939
422.746	1.96408
425.639	3.17574
428.531	1.27048
431.424	1.62849
434.317	2.43854
437.21	0.744609
440.102	2.65579
442.995	0.38279
445.888	1.38995
448.78	2.55911
451.673	3.47151
454.566	3.10999
457.459	2.36502
460.351	1.64101
463.244	2.71971
466.137	1.89741
469.029	1.59786
471.922	0.714431
474.815	3.02899
477.707	0.196835
480.6	0.429235
483.493	1.87292
486.385	1.25312
489.278	2.84205
492.171	0.911045
495.064	2.4514
497.956	2.37824
500.849	2.20926
503.742	0.950584
506.634	2.08467
509.527	0.447108
512.42	3.91773
515.313	1.044
518.205	1.74795
521.098	0.167365
523.991	1.43523
526.883	0.266768
529.776	3.02815
532.669	2.00125
535.562	1.06247
538.454	1.61413
541.347	1.25538
544.24	1.56068
547.132	0.065766
550.025	0.317758
552.918	0.281887
555.81	1.49996
558.703	2.06203
561.596	1.62501
564.489	2.42267
567.381	2.48592
570.274	1.94738
573.167	3.02645
576.059	3.01995
578.952	1.56286
581.845	0.983578
584.737	1.18124
587.63	0.637575
590.523	1.71072
593.415	2.17955
596.308	2.16671
599.201	2.36294
602.093	1.51706
604.986	0.069133
607.879	1.20572
610.772	1.17406
613.664	1.66037
616.557	0.678738
619.45	2.08742
622.342	1.4698
625.235	1.90957
628.128	1.71945
631.02	2.62522
633.913	3.17067
636.806	2.58503
639.699	0.883317
642.591	1.90457
645.484	0.586883
648.377	1.04048
651.269	1.55206
654.162	0.99229
657.055	1.1649
659.947	2.71929
662.84	1.0073
665.733	1.84778
668.626	2.14277
671.518	1.39737
674.411	1.29009
677.304	1.57955
680.196	1.19198
683.089	1.32427
685.982	0.962082
688.875	0.351304
691.767	1.73825
694.66	0.574447
697.553	1.32316
700.445	2.17258
703.338	0.364998
706.231	1.16884
709.123	2.74626
712.016	0.926823
714.909	1.99624
717.802	1.8068
720.694	1.58488
723.587	1.70261
726.48	1.17868
729.372	3.4105
732.265	2.16969
735.158	1.34804
738.05	2.76936
740.943	3.38606
743.836	4.34296
746.729	1.98266
749.621	3.42398
752.514	1.8647
755.407	1.39765
758.299	2.06776
761.192	3.4553
764.085	2.42524
766.977	1.51358
769.87	2.75996
772.763	0.636022
775.655	0.822494
778.548	1.89276
781.441	2.78547
784.334	2.39017
787.226	3.08788
790.119	3.31849
793.012	0.362018
795.904	1.81811
798.797	1.30257
801.69	0.469245
804.582	1.92285
807.475	1.45251
810.368	2.14756
813.261	1.54048
816.153	1.91828
819.046	1.92782
821.939	2.98285
824.831	2.22581
827.724	3.27498
830.617	1.38046
833.51	2.7295
836.402	1.98857
839.295	2.37864
842.188	1.46728
845.08	3.12953
847.973	3.31564
850.866	1.31054
853.758	1.69032
856.651	1.89657
859.544	1.86582
862.437	2.80663
865.329	0.889606
868.222	2.01775
871.115	2.0635
874.007	3.7706
876.9	2.44704
879.793	0.722351
882.685	1.67829
885.578	0.505566
888.471	0.839355
891.364	2.02813
894.256	1.17912
897.149	2.16046
900.042	1.67017
902.934	2.7395
905.827	2.91224
908.72	0.999765
911.612	0.838708
914.505	0.885682
917.398	0.196339
920.29	1.44746
923.183	0.893771
926.076	1.80171
928.969	0.022185
931.861	1.08264
934.754	2.14495
937.647	2.4326
940.539	1.6673
943.432	2.3826
946.325	0.867444
949.217	1.14175
952.11	1.04876
955.003	1.14556
957.896	0.754747
960.788	1.75639
963.681	1.21727
966.574	3.09088
969.466	2.17985
972.359	2.43531
975.252	1.13241
978.144	1.60503
981.037	1.46391
983.93	1.947
986.823	1.20828
989.715	2.17829
992.608	0.555167
995.501	1.42731
998.393	0.375257
1001.29	0.935938
1004.18	1.33476
1007.07	2.73398
1009.96	0.845467
1012.86	1.36785
1015.75	1.80405
1018.64	1.4015
1021.53	0.368744
1024.43	0.184196
1027.32	1.49556
1030.21	0.024783
1033.11	2.42785
1036	1.09554
1038.89	3.10112
1041.78	0.704379
1044.68	3.51021
1047.57	0.712246
1050.46	1.69693
1053.36	1.35954
1056.25	1.48392
1059.14	2.86514
1062.03	0.666821
1064.93	2.3746
1067.82	1.76964
1070.71	2.34151
1073.6	2.17252
1076.5	2.4146
1079.39	1.62479
1082.28	1.44489
1085.17	1.89074
1088.07	1.05697
1090.96	1.40303
1093.85	1.88638
1096.74	0.598406
1099.64	2.52079
1102.53	0.515162
1105.42	0.163444
1108.32	2.53605
1111.21	3.4155
1114.1	2.6774
1116.99	0.68342
1119.89	2.84078
1122.78	1.45873
1125.67	3.82392
1128.57	1.93145
1131.46	3.81675
1134.35	2.02056
1137.24	0.999685
1140.14	3.00817
1143.03	0.706338
1145.92	0.958179
1148.81	1.71884
1151.71	2.029
1154.6	2.87064
1157.49	1.88668
1160.38	3.06423
1163.28	1.90107
1166.17	0.495431
1169.06	0.656292
1171.95	1.16675
1174.85	1.45961
1177.74	2.49446
1180.63	2.68018
1183.53	0.862394
1186.42	2.50486
1189.31	1.81389
1192.2	0.774668
1195.1	1.74977
1197.99	2.06629
1200.88	2.20592
1203.78	1.00853
1206.67	3.3265
1209.56	1.93093
1212.45	2.34795
1215.35	1.79923
1218.24	0.713209
1221.13	0.821575
1224.02	1.78797
1226.92	2.144
1229.81	0.90409
1232.7	1.32294
1235.6	0.651838
1238.49	2.10313
1241.38	1.38993
1244.27	1.95576
1247.17	1.02584
1250.06	3.28211
1252.95	3.43389
1255.84	1.49041
1258.74	3.34054
1261.63	2.74836
1264.52	3.24954
1267.41	2.46233
1270.31	1.44278
1273.2	0.228123
1276.09	2.45532
1278.98	2.28009
1281.88	1.26249
1284.77	0.840493
1287.66	2.18431
1290.56	2.44863
1293.45	1.08489
1296.34	0.87225
1299.23	1.2221
1302.13	0
