Measurement: Raman, 780 nm, unoriented, Raman Data Processed
Mineral: Wittichenite
Rruff sample: R100013
Ideal chemistry: Cu_3_BiS_3_
Locality: Cattle Grid pit, Mt. Gunson mine, Pernatty Lagoon, South Australia
Source: William Pinch
Description: Sharp terminated brownish-black crystal
Raman shift (cm-1)	intensity
108.055	0
111.43	1.45935
114.805	2.02045
118.18	1.30329
121.554	2.99427
124.929	3.36132
128.304	1.24567
131.679	2.12736
135.054	1.02762
138.428	2.22181
141.803	2.82085
145.178	0.995757
148.553	1.38837
151.928	1.43415
155.303	2.48459
158.677	0.20071
162.052	0.680084
165.427	2.43773
168.802	0.901581
172.177	0.182757
175.551	1.89991
178.926	0.092117
182.301	0.667497
185.676	1.29102
189.051	1.24657
192.425	0.586285
195.8	1.31186
199.175	1.48901
202.55	1.98121
205.925	3.53814
209.3	2.37196
212.674	1.69459
216.049	0.786013
219.424	2.36407
222.799	2.916
226.174	1.6394
229.548	5.21628
232.923	5.37667
236.298	5.16355
239.673	7.66174
243.048	9.20702
246.423	9.39371
249.797	11.8906
253.172	13.1556
256.547	13.1216
259.922	16.1631
263.297	16.263
266.671	19.1759
270.046	18.8008
273.421	17.7236
276.796	17.9127
280.171	18.0578
283.546	16.5464
286.92	13.0937
290.295	12.6729
293.67	7.50458
297.045	6.35839
300.42	5.31172
303.794	4.48627
307.169	2.9602
310.544	3.19478
313.919	2.09944
317.294	1.98207
320.668	0.82462
324.043	1.74601
327.418	3.50161
330.793	0.426802
334.168	1.02088
337.543	1.61282
340.917	1.32394
344.292	2.18666
347.667	1.0991
351.042	0.207021
354.417	1.39422
357.791	1.94947
361.166	1.32202
364.541	0.141361
367.916	1.18
371.291	0.870982
374.666	1.69711
378.04	2.18995
381.415	3.08181
384.79	0.816628
388.165	3.50096
391.54	0.039488
394.914	1.67092
398.289	0.035661
401.664	1.89699
405.039	1.07713
408.414	1.31257
411.789	1.87048
415.163	2.45296
418.538	2.18253
421.913	1.78007
425.288	0.693621
428.663	1.83788
432.038	1.96557
435.412	2.36702
438.787	0.012041
442.162	2.26606
445.537	0.32191
448.912	1.40777
452.286	2.49871
455.661	2.67697
459.036	2.18177
462.411	1.46393
465.786	3.03396
469.161	1.19908
472.535	1.39304
475.91	2.62144
479.285	0.069981
482.66	1.0816
486.034	1.39335
489.409	2.68954
492.784	2.0683
496.159	2.294
499.534	1.19461
502.909	2.21607
506.283	2.20399
509.658	0.218936
513.033	0.365637
516.408	1.36988
519.783	0.789915
523.158	2.99563
526.532	2.58394
529.907	1.89037
533.282	-0.203868
536.657	1.2686
540.032	0.823362
543.406	1.54635
546.781	1.01669
550.156	1.99696
553.531	1.45382
556.906	2.58257
560.28	0.420812
563.655	2.08882
567.03	3.06351
570.405	2.19884
573.78	2.81968
577.155	2.48369
580.529	0.84308
583.904	2.2856
587.279	0.553887
590.654	1.48438
594.029	1.81335
597.404	1.57971
600.778	1.91704
604.153	0.019709
607.528	1.73624
610.903	0.13016
614.278	1.9712
617.652	1.81619
621.027	1.46792
624.402	1.81808
627.777	1.65465
631.152	2.11604
634.527	0.605487
637.901	0.31914
641.276	1.15246
644.651	1.1135
648.026	2.03699
651.401	2.24178
654.775	2.57291
658.15	0.208192
661.525	1.34222
664.9	1.32519
668.275	2.52924
671.649	0.779621
675.024	2.737
678.399	1.31465
681.774	0.853766
685.149	0.832715
688.524	1.46194
691.898	0.336612
695.273	1.47542
698.648	2.33066
702.023	0.09874
705.398	0.930607
708.773	1.04635
712.147	2.13805
715.522	2.00531
718.897	1.37536
722.272	3.23333
725.646	2.63741
729.021	2.40925
732.396	0.313359
735.771	2.72752
739.146	3.54658
742.521	3.99666
745.895	2.25575
749.27	1.83555
752.645	1.45988
756.02	2.06709
759.395	2.18589
762.769	1.86411
766.144	2.17942
769.519	0.689494
772.894	2.50706
776.269	2.53884
779.644	1.80838
783.018	2.55695
786.393	2.52207
789.768	0.334391
793.143	2.48563
796.518	3.67777
799.893	2.92839
803.267	1.57065
806.642	2.18275
810.017	1.63633
813.392	4.22996
816.767	1.2278
820.141	2.23633
823.516	2.72779
826.891	2.24595
830.266	2.64035
833.641	3.16233
837.015	1.13969
840.39	3.24393
843.765	2.11174
847.14	0.060338
850.515	1.3029
853.89	2.40749
857.264	3.16813
860.639	0.673382
864.014	2.49475
867.389	1.62302
870.764	2.07456
874.139	1.73381
877.513	1.68728
880.888	1.46586
884.263	2.60622
887.638	2.84615
891.013	2.5821
894.387	1.43204
897.762	1.94266
901.137	3.57949
904.512	2.02253
907.887	1.24538
911.261	0.423573
914.636	1.69054
918.011	2.07705
921.386	3.97467
924.761	1.44641
928.136	1.46073
931.51	2.8965
934.885	2.58717
938.26	0.92126
941.635	1.8741
945.01	0.824455
948.385	1.23524
951.759	0.925386
955.134	1.57087
958.509	3.07234
961.884	2.20085
965.259	2.49304
968.633	1.55352
972.008	0.740895
975.383	2.93724
978.758	1.41371
982.133	2.23684
985.507	1.66249
988.882	0.897974
992.257	1.93402
995.632	2.18733
999.007	2.73819
1002.38	1.7993
1005.76	2.69473
1009.13	2.32171
1012.51	0.04478
1015.88	0.666312
1019.26	0.764367
1022.63	1.79649
1026.01	0.496424
1029.38	2.10909
1032.76	0.155471
1036.13	2.2339
1039.51	1.84451
1042.88	0.672367
1046.25	1.88175
1049.63	2.48033
1053	0.561082
1056.38	1.17723
1059.75	2.40258
1063.13	2.42014
1066.5	2.75216
1069.88	2.51515
1073.25	0.62741
1076.63	3.03217
1080	2.16548
1083.38	1.25395
1086.75	0.307193
1090.13	2.28829
1093.5	1.19962
1096.88	1.47833
1100.25	0.775851
1103.63	2.1826
1107	0.041799
1110.38	2.29864
1113.75	4.38913
1117.12	2.51211
1120.5	3.68611
1123.88	2.09334
1127.25	0.99384
1130.62	0.050211
1134	1.29538
1137.37	1.15585
1140.75	2.06289
1144.12	2.02325
1147.5	1.40116
1150.87	1.78667
1154.25	0.29649
1157.62	1.17946
1161	1.30986
1164.37	2.18094
1167.75	2.70161
1171.12	1.02848
1174.5	2.47279
1177.87	2.7958
1181.25	1.26352
1184.62	2.17742
1188	2.27578
1191.37	2.20838
1194.75	0.678567
1198.12	2.47235
1201.5	1.99845
1204.87	0.65224
1208.24	1.89397
1211.62	2.20293
1214.99	1.13882
1218.37	1.46797
1221.74	0.198753
1225.12	1.40019
1228.49	0.425146
1231.87	2.15274
1235.24	3.66082
1238.62	3.33872
1241.99	0.700776
1245.37	1.40382
1248.74	3.24336
1252.12	0.329954
1255.49	2.35557
1258.87	1.63761
1262.24	0.491509
1265.62	2.27844
1268.99	1.72395
1272.37	1.74413
1275.74	1.04724
1279.12	0.903046
1282.49	1.53696
