Measurement: Raman, 514 nm, unoriented, Raman Data Processed
Mineral: Wohlerite
Rruff sample: R050275
Ideal chemistry: NaCa_2_(Zr,Nb)(Si_2_O_7_)(O,F)_2_
Locality: Langesundsfjord, Norway
Source: Marcus Origlieri
Description: Yellowish brown granular
Raman shift (cm-1)	intensity
100.34	0
104.516	106.297
108.691	62.959
112.864	98.521
117.034	295.638
121.203	142.866
125.369	31.323
129.534	24.946
133.696	391.188
137.857	755.47
142.016	1000.2
146.172	1318.16
150.327	1481.38
154.48	1817.14
158.63	2218.23
162.779	2570.99
166.926	2020.14
171.07	883.152
175.213	190.567
179.354	11.023
183.493	30.016
187.63	426.081
191.765	969.334
195.898	1628.14
200.029	2110.68
204.158	2110
208.285	2381.33
212.41	2346.45
216.533	2272.03
220.654	2317.31
224.773	2748.65
228.891	3000.2
233.006	2952.07
237.119	2760.13
241.231	2526.07
245.34	2446.83
249.448	2568.38
253.553	2550.7
257.657	2359.74
261.758	2359.55
265.858	2712.51
269.956	2794.78
274.052	2780.13
278.146	2634.26
282.237	2372.59
286.327	2253.64
290.416	2044.93
294.502	2285.18
298.586	2609.2
302.668	3182.87
306.749	3832.62
310.827	4283.73
314.903	4275.94
318.978	3738.4
323.051	3220.74
327.121	3040.03
331.19	2944.16
335.257	2596.78
339.322	1960.17
343.385	1425.78
347.446	1214.6
351.505	1160.95
355.563	870.627
359.618	865.735
363.672	1234.68
367.723	1627.64
371.773	1839.56
375.821	1826.91
379.866	1782.62
383.91	1857.67
387.952	2376.92
391.992	2635.73
396.031	2352.07
400.067	2110.93
404.101	1929.29
408.134	1928.16
412.165	2180.78
416.193	2276.63
420.22	2040.37
424.245	1548.81
428.268	1169.25
432.289	965.424
436.309	934.704
440.326	857.245
444.342	820.555
448.355	736.467
452.367	751.302
456.377	716.719
460.385	516.378
464.391	367.438
468.395	276.871
472.398	103.625
476.398	50.434
480.397	117.877
484.394	187.497
488.389	210.569
492.382	138.167
496.373	81.764
500.362	120.022
504.349	172.816
508.335	240.763
512.319	230.893
516.3	146.159
520.28	124.521
524.259	170.975
528.235	456.545
532.209	658.388
536.182	970.229
540.152	703.464
544.121	604.087
548.088	781.908
552.053	993.991
556.017	1165.42
559.978	1102.03
563.938	936.924
567.895	611.189
571.851	398.907
575.805	315.665
579.758	396.942
583.708	429.029
587.657	289.37
591.603	44.906
595.548	17.765
599.491	23.885
603.432	21.534
607.372	244.778
611.309	433.213
615.245	608.963
619.179	614.049
623.111	676.271
627.041	485.029
630.97	440.271
634.896	362.591
638.821	296.806
642.744	235.688
646.665	438.039
650.584	909.545
654.502	1588.97
658.418	1802.2
662.331	1449.2
666.244	1111.8
670.154	905.983
674.062	694.36
677.969	385.418
681.874	261.264
685.777	98.919
689.678	0.122
693.577	71.835
697.475	2.215
701.371	70.103
705.265	40.152
709.157	5.053
713.047	202.495
716.936	135.837
720.823	224.547
724.708	220.621
728.591	333.245
732.472	270.122
736.352	241.603
740.23	404.217
744.106	683.433
747.98	1007.15
751.853	1568.67
755.723	1729.57
759.592	1754.33
763.459	1640.81
767.325	1292.05
771.188	969.337
775.05	1134.62
778.91	1729.89
782.768	2412.74
786.625	2997.57
790.479	3871.93
794.332	5231.87
798.183	8217.96
802.033	12953.6
805.88	20400
809.726	30394.1
813.57	36178.7
817.413	30718.5
821.253	20069.5
825.092	11888.7
828.929	7584.11
832.764	5708.96
836.598	4761.23
840.429	4101.42
844.259	3578.63
848.088	3335.09
851.914	3021.39
855.739	2071.44
859.562	1097.71
863.383	432.156
867.203	224.933
871.02	36.969
874.836	81.982
878.65	68.053
882.463	103.881
886.274	124.353
890.083	179.263
893.89	682.161
897.695	1547.38
901.499	2787.98
905.301	4013.23
909.102	4979.18
912.9	5363.81
916.697	4619.95
920.492	4196.46
924.285	3206.32
928.077	2203.53
931.867	1397.09
935.655	1262.01
939.442	1414.3
943.226	2044.96
947.009	2707.94
950.791	2418.47
954.57	1365.3
958.348	1197.51
962.124	824.09
965.899	553.036
969.671	437.352
973.442	330.041
977.211	158.107
980.979	80.551
984.745	23.633
988.509	63.516
992.271	342.046
996.032	482.96
999.791	726.306
1003.55	956.076
1007.3	834.243
1011.06	434.811
1014.81	209.701
1018.56	12.821
1022.31	115.509
1026.06	186.505
1029.8	97.509
1033.55	172.233
1037.29	94.63
1041.03	515.563
1044.77	930.371
1048.5	1336.72
1052.24	1943.59
1055.97	2212.96
1059.7	2479.84
1063.43	2589.21
1067.16	2795.01
1070.89	2941.18
1074.61	2832.7
1078.34	2467.57
1082.06	2174.89
1085.78	1768.72
1089.5	1089.19
1093.21	540.521
1096.93	420.56
1100.64	795.198
1104.35	1282.27
1108.06	1999.8
1111.77	2815.67
1115.48	3843.89
1119.18	5311.61
1122.89	6245.72
1126.59	5459.18
1130.29	4241.99
1133.99	2702.64
1137.68	2138.05
1141.38	2067.71
1145.07	2730.56
1148.76	3045.58
1152.45	2883.06
1156.14	2834.5
1159.83	3148.78
1163.51	3967.03
1167.19	4612.35
1170.88	5405.17
1174.56	6467.65
1178.23	8043.83
1181.91	11103.6
1185.59	14831.2
1189.26	15595.1
1192.93	12833
1196.6	11104.6
1200.27	10648
1203.94	7284.7
1207.6	4513.71
1211.27	2833.72
1214.93	1669.56
1218.59	1220.72
1222.25	967.351
1225.9	947.081
1229.56	909.739
1233.21	1236.53
1236.86	1820.34
1240.51	2598.81
1244.16	3101.15
1247.81	3363.05
1251.45	3426.43
1255.1	4054.56
1258.74	4409.8
1262.38	4451.92
1266.02	3697.91
1269.66	2793.44
1273.29	2033.95
1276.93	1505.48
1280.56	1143.29
1284.19	888.647
1287.82	643.554
1291.45	514.334
1295.07	427.489
1298.7	285.417
1302.32	234.605
1305.94	148.979
1309.56	96.232
1313.18	101.28
1316.8	44.002
1320.41	129.135
1324.02	35.938
1327.63	12.82
1331.24	21.389
1334.85	51.841
1338.46	24.589
1342.06	12.035
1345.67	137.386
1349.27	69.158
1352.87	21.704
1356.47	27.83
1360.07	226.533
1363.66	299.546
1367.25	139.964
1370.85	51.124
1374.44	20.649
1378.03	134.328
1381.61	147.841
1385.2	71.128
1388.78	13.18
1392.37	43.81
1395.95	82.812
1399.53	84.414
1403.1	59.975
1406.68	17.924
1410.26	73.463
1413.83	3.15
1417.4	82.061
1420.97	73.943
1424.54	185.179
1428.1	196.964
1431.67	252.149
1435.23	364.919
1438.8	546.795
1442.36	599.29
1445.91	705.982
1449.47	837.913
1453.03	1019.11
1456.58	973.779
1460.13	1207.44
1463.68	1441.18
1467.23	1781.66
1470.78	1874.79
1474.33	1995.47
1477.87	1884.48
1481.42	1989.19
1484.96	1618.09
1488.5	1760.27
1492.04	1510.23
1495.57	1486.1
1499.11	1521.43
1502.64	1219.16
1506.17	1183.11
1509.71	1042.75
1513.23	726.329
1516.76	581.301
1520.29	332.543
1523.81	9.146
