Measurement: Raman, 532 nm, unoriented, Raman Data Processed
Mineral: Wohlerite
Rruff sample: R060086
Ideal chemistry: NaCa_2_(Zr,Nb)(Si_2_O_7_)(O,F)_2_
Locality: Langesundfjord, Norway
Source: University of Arizona Mineral Museum
Description: Yellowish-brown fragment frozen in matrix
Measured chemistry: Na_1.00_(Ca_1.87_Fe^2+^_0.08_Mn_0.05_)_Σ=2_(Zr_0.52_Nb_0.41_Ti_0.06_Hf_0.01_)_Σ=1_Si_2.00_O_7_((OH)_1.15_O_0.78_F_0.70_)_Σ=2_
Raman shift (cm-1)	intensity
176.188	0
179.081	3.0612
181.973	0.976295
184.866	5.00835
187.759	14.7488
190.651	26.9669
193.544	41.7313
196.437	59.0272
199.33	64.2027
202.222	57.8394
205.115	43.0429
208.008	34.3318
210.9	22.53
213.793	15.11
216.686	13.9532
219.578	5.83432
222.471	1.29732
225.364	0.229083
228.257	1.17171
231.149	1.52171
234.042	6.44068
236.935	12.482
239.827	14.5855
242.72	17.3012
245.613	20.2515
248.506	23.002
251.398	27.3725
254.291	30.6284
257.184	37.357
260.076	37.9145
262.969	43.1022
265.862	45.0949
268.754	44.403
271.647	35.473
274.54	26.7528
277.433	19.2489
280.325	9.3883
283.218	0.889719
286.111	3.30174
289.003	8.89422
291.896	21.579
294.789	35.9251
297.681	53.7296
300.574	63.1888
303.467	61.7959
306.36	62.9071
309.252	58.7665
312.145	51.6144
315.038	39.2784
317.93	31.8142
320.823	25.4233
323.716	24.1755
326.608	24.0573
329.501	25.9317
332.394	29.7821
335.286	24.2502
338.179	16.5583
341.072	7.93589
343.965	3.71017
346.857	2.51411
349.75	0.542801
352.643	2.61459
355.535	3.10194
358.428	2.22077
361.321	15.7775
364.214	31.381
367.106	49.1522
369.999	71.3516
372.892	96.7886
375.784	119.265
378.677	149.581
381.57	182.17
384.462	220.412
387.355	260.734
390.248	276.243
393.14	242.084
396.033	188.044
398.926	144.741
401.819	119.779
404.711	105.641
407.604	91.9351
410.497	79.352
413.389	74.0994
416.282	73.8563
419.175	74.2188
422.067	69.8418
424.96	65.6961
427.853	59.8931
430.746	54.0902
433.638	52.0774
436.531	43.4767
439.424	33.3743
442.316	18.7153
445.209	6.99703
448.102	0.315855
450.994	1.09852
453.887	1.66446
456.78	1.33235
459.673	1.10319
462.565	1.57857
465.458	0.846753
468.351	9.85273
471.243	21.2327
474.136	35.8108
477.029	51.5513
479.921	66.6681
482.814	78.0982
485.707	76.457
488.599	61.4498
491.492	37.5625
494.385	20.2104
497.278	8.43553
500.17	7.30854
503.063	13.1492
505.956	20.0235
508.848	20.9129
511.741	17.9738
514.634	11.2908
517.527	12.7359
520.419	18.1961
523.312	32.5557
526.205	51.2955
529.097	77.4616
531.99	106.678
534.883	136.219
537.775	167.487
540.668	196.669
543.561	236.569
546.454	270.957
549.346	273.855
552.239	248.765
555.132	214.98
558.024	191.732
560.917	169.201
563.81	136.147
566.702	93.9266
569.595	54.3881
572.488	28.5635
575.381	12.3014
578.273	3.52247
581.166	0.047304
584.059	2.64765
586.951	2.6302
589.844	1.29539
592.737	1.18164
595.629	1.06651
598.522	3.13779
601.415	11.8712
604.308	22.2966
607.2	32.5196
610.093	44.87
612.986	61.9408
615.878	73.891
618.771	85.3967
621.664	92.9067
624.556	91.42
627.449	84.3267
630.342	75.5711
633.235	66.9753
636.127	60.2959
639.02	56.0434
641.913	60.1776
644.805	65.1982
647.698	77.6567
650.591	92.482
653.483	111.647
656.376	126.957
659.269	122.324
662.162	108.644
665.054	93.0652
667.947	79.8692
670.84	64.9229
673.732	55.9451
676.625	42.3064
679.518	30.874
682.41	20.6873
685.303	11.1117
688.196	4.87298
691.088	2.59623
693.981	3.6275
696.874	4.83856
699.767	2.86297
702.659	2.90495
705.552	0.475539
708.445	0.400126
711.337	0.594443
714.23	0.596543
717.123	2.7396
720.015	1.35997
722.908	1.39505
725.801	1.92213
728.694	3.43051
731.586	3.39392
734.479	3.0236
737.372	3.19389
740.264	3.79684
743.157	22.6335
746.05	41.3769
748.942	71.4087
751.835	107.953
754.728	144.646
757.621	174.833
760.513	188.984
763.406	185.896
766.299	161.262
769.191	118.426
772.084	72.1005
774.977	47.0471
777.87	37.0227
780.762	40.5308
783.655	48.3212
786.548	56.851
789.44	79.6346
792.333	116.848
795.226	178.935
798.118	277.549
801.011	410.288
803.904	584.913
806.796	785.924
809.689	986.196
812.582	1127.92
815.475	1089.55
818.367	867.131
821.26	587.476
824.153	365.361
827.045	226.769
829.938	152.821
832.831	120.559
835.723	108.831
838.616	104.428
841.509	101.492
844.402	106.455
847.294	114.278
850.187	115.51
853.08	96.0378
855.972	70.1034
858.865	45.6787
861.758	22.6287
864.65	7.0759
867.543	3.40955
870.436	7.48153
873.329	2.81078
876.221	1.70182
879.114	1.95477
882.007	4.29952
884.899	2.84034
887.792	10.8871
890.685	29.2824
893.577	58.1505
896.47	95.0685
899.363	139.588
902.256	189.975
905.148	237.947
908.041	263.298
910.934	269.399
913.826	271.845
916.719	265.524
919.612	251.061
922.505	224.58
925.397	177.844
928.29	132.515
931.183	99.5883
934.075	79.0788
936.968	69.2274
939.861	57.1486
942.753	60.7179
945.646	55.5403
948.539	65.5607
951.432	79.8085
954.324	91.5701
957.217	97.9696
960.11	84.6025
963.002	67.1
965.895	52.9542
968.788	47.7893
971.68	47.0575
974.573	49.8552
977.466	43.4332
980.359	34.1405
983.251	21.8355
986.144	8.77102
989.037	0.25393
991.929	0.406962
994.822	0.989138
997.715	1.01891
1000.61	0.852452
1003.5	0.017667
1006.39	0.359678
1009.28	0.424388
1012.18	0.253748
1015.07	2.65976
1017.96	6.99387
1020.86	11.4822
1023.75	16.6019
1026.64	21.2553
1029.53	27.1411
1032.43	35.1854
1035.32	40.4381
1038.21	46.8874
1041.11	54.2353
1044	59.187
1046.89	64.8344
1049.78	59.1937
1052.68	55.8376
1055.57	49.2507
1058.46	42.9461
1061.35	34.624
1064.25	25.6408
1067.14	22.7378
1070.03	14.5927
1072.92	10.0912
1075.82	7.46216
1078.71	5.51746
1081.6	0.765867
1084.5	0.371363
1087.39	0.174922
1090.28	0.954223
1093.17	2.63147
1096.07	0.15885
1098.96	0.505851
1101.85	0.153793
1104.74	2.42498
1107.64	0.10334
1110.53	0.262828
1113.42	1.38045
1116.32	1.42605
1119.21	2.39859
1122.1	2.74581
1124.99	6.32835
1127.89	3.04989
1130.78	4.68874
1133.67	5.72808
1136.56	4.92661
1139.46	4.14675
1142.35	4.68637
1145.24	4.60299
1148.13	5.34019
1151.03	5.12309
1153.92	4.52048
1156.81	6.25012
1159.71	8.26247
1162.6	2.73686
1165.49	5.82621
1168.38	3.4188
1171.28	2.94603
1174.17	1.99537
1177.06	2.39873
1179.95	5.09094
1182.85	3.12971
1185.74	3.19872
1188.63	3.16659
1191.53	2.32229
1194.42	2.61084
1197.31	3.16473
1200.2	0.807066
1203.1	1.7821
1205.99	3.80458
1208.88	2.66096
1211.77	2.11681
1214.67	0.150302
1217.56	1.74875
1220.45	1.88516
1223.35	3.16206
1226.24	2.02568
1229.13	0.506507
1232.02	1.64998
1234.92	0.817832
1237.81	0.711488
1240.7	0.007846
1243.59	0.606907
1246.49	0.203647
1249.38	2.6973
1252.27	1.22887
1255.16	1.83611
1258.06	2.0033
1260.95	0.286363
1263.84	2.71632
1266.74	2.31634
1269.63	3.80442
1272.52	1.50941
1275.41	2.05821
1278.31	1.75147
1281.2	1.06778
1284.09	0.723539
1286.98	1.8561
1289.88	1.87244
1292.77	0.556453
1295.66	1.1923
1298.56	0.001574
