Measurement: Raman, 780 nm, unoriented, Raman Data Processed
Mineral: Wohlerite
Rruff sample: R060086
Ideal chemistry: NaCa_2_(Zr,Nb)(Si_2_O_7_)(O,F)_2_
Locality: Langesundfjord, Norway
Source: University of Arizona Mineral Museum
Description: Yellowish-brown fragment frozen in matrix
Measured chemistry: Na_1.00_(Ca_1.87_Fe^2+^_0.08_Mn_0.05_)_Σ=2_(Zr_0.52_Nb_0.41_Ti_0.06_Hf_0.01_)_Σ=1_Si_2.00_O_7_((OH)_1.15_O_0.78_F_0.70_)_Σ=2_
Raman shift (cm-1)	intensity
187.962	0
190.372	1.5118
192.783	3.89277
195.193	12.818
197.604	14.6443
200.015	20.1518
202.425	21.8977
204.836	21.5424
207.246	11.6124
209.657	7.73007
212.067	1.56151
214.478	0.052866
216.889	0.473168
219.299	0.96073
221.71	1.48579
224.12	8.01707
226.531	15.941
228.942	23.851
231.352	30.736
233.763	45.2605
236.173	56.3688
238.584	58.6019
240.994	57.7952
243.405	52.0214
245.816	49.585
248.226	49.1617
250.637	47.41
253.047	43.2316
255.458	40.2432
257.869	36.9319
260.279	30.9905
262.69	31.2037
265.1	25.2828
267.511	17.7089
269.921	13.288
272.332	6.36915
274.743	1.85224
277.153	1.3773
279.564	1.86971
281.974	1.62513
284.385	2.17878
286.796	0.497138
289.206	5.29998
291.617	15.8042
294.027	23.3539
296.438	28.5576
298.849	40.3591
301.259	43.8239
303.67	46.5591
306.08	53.3813
308.491	54.0118
310.901	58.6401
313.312	61.1086
315.723	62.6892
318.133	65.6798
320.544	72.4279
322.954	71.7682
325.365	74.9487
327.776	67.6593
330.186	65.6352
332.597	62.7043
335.007	49.9011
337.418	36.735
339.828	24.5757
342.239	16.0756
344.649	3.21216
347.06	5.30601
349.471	1.8174
351.881	0.706353
354.292	1.53106
356.702	3.37689
359.113	4.60714
361.524	0.225
363.934	13.3813
366.345	26.7133
368.755	41.9725
371.166	60.4847
373.577	77.2009
375.987	94.8308
378.398	115.304
380.808	129.897
383.219	150.143
385.63	164.211
388.04	179.663
390.451	181.395
392.861	178.085
395.272	171.699
397.682	172.418
400.093	167.56
402.503	170.688
404.914	174.966
407.325	180.357
409.735	184.978
412.146	203.947
414.557	213.668
416.967	225.726
419.378	249.666
421.788	272.108
424.199	290.134
426.609	310.762
429.02	331.12
431.43	347.561
433.841	358.804
436.252	363.236
438.662	355.275
441.073	344.703
443.483	322.12
445.894	293.986
448.305	267.028
450.715	236.436
453.126	197.248
455.536	166.97
457.947	135.71
460.358	105.869
462.768	78.7782
465.179	59
467.589	38.2645
470	24.6711
472.411	11.2852
474.821	0.02104
477.232	8.0137
479.642	6.18156
482.053	0.649839
484.463	0.609
486.874	0.186371
489.284	4.05558
491.695	1.6733
494.106	12.1849
496.516	21.1146
498.927	37.4904
501.337	53.4811
503.748	72.0164
506.159	91.0784
508.569	113.042
510.98	139.117
513.39	159.849
515.801	185.733
518.212	213.365
520.622	236.93
523.033	262.492
525.443	283.636
527.854	299.529
530.264	307.896
532.675	313.516
535.086	310.324
537.496	303.459
539.907	290.686
542.317	275.399
544.728	256.856
547.139	242.312
549.549	215.749
551.96	199.337
554.37	183.594
556.781	160.932
559.192	139.899
561.602	124.339
564.013	100.828
566.423	84.6098
568.834	66.146
571.244	55.526
573.655	43.3183
576.066	34.2997
578.476	27.8205
580.887	20.7272
583.297	14.9482
585.708	10.3946
588.118	11.8559
590.529	3.50705
592.94	2.7792
595.35	1.64684
597.761	1.19707
600.171	0.7937
602.582	0.044183
604.992	1.8556
607.403	0.032886
609.814	1.62205
612.224	4.0519
614.635	6.76692
617.045	10.0942
619.456	11.1782
621.867	9.50617
624.277	9.7833
626.688	9.53987
629.098	10.6727
631.509	7.69126
633.919	8.77911
636.33	10.0675
638.741	9.71756
641.151	14.8622
643.562	18.4138
645.972	21.9292
648.383	28.0374
650.794	33.7537
653.204	36.7875
655.615	40.8555
658.025	34.7927
660.436	33.6559
662.846	28.4481
665.257	23.0182
667.668	21.9945
670.078	17.9873
672.489	13.5908
674.899	12.4137
677.31	9.68704
679.721	7.44898
682.131	6.14102
684.542	3.479
686.952	2.10857
689.363	0.469623
691.774	0.34956
694.184	1.24658
696.595	1.97178
699.005	0.658362
701.416	0.879946
703.826	0.345158
706.237	0.53686
708.648	0.208608
711.058	0.363792
713.469	0.394017
715.879	0.46118
718.29	1.16379
720.701	0.216458
723.111	0.995964
725.522	0.420264
727.932	1.60755
730.343	1.63447
732.753	0.494309
735.164	0.786631
737.575	2.65522
739.985	3.94915
742.396	8.97479
744.806	15.3242
747.217	22.5784
749.628	30.8182
752.038	39.9194
754.449	43.8948
756.859	49.2006
759.27	50.3713
761.68	48.2274
764.091	41.6303
766.502	35.6687
768.912	22.9262
771.323	15.8755
773.733	9.82301
776.144	8.14131
778.554	8.70674
780.965	11.3837
783.376	15.3085
785.786	19.5662
788.197	27.8146
790.607	41.7026
793.018	60.4631
795.429	87.5253
797.839	124.438
800.25	163.066
802.66	203.923
805.071	242.202
807.481	277.562
809.892	301.379
812.303	303.84
814.713	279.963
817.124	230.554
819.534	171.151
821.945	118.17
824.356	82.754
826.766	60.074
829.177	46.8858
831.587	40.2751
833.998	39.0585
836.409	37.9998
838.819	36.3478
841.23	37.4954
843.64	37.267
846.051	37.3658
848.461	34.64
850.872	28.8708
853.283	21.9657
855.693	15.2345
858.104	6.24248
860.514	1.93434
862.925	1.50128
865.336	2.0036
867.746	0.057564
870.157	1.04848
872.567	1.97007
874.978	0.571089
877.388	0.703786
879.799	0.942608
882.21	2.60539
884.62	7.731
887.031	13.5301
889.441	21.5802
891.852	27.9144
894.263	38.2486
896.673	48.6478
899.084	58.3065
901.494	69.3952
903.905	76.1903
906.315	79.4496
908.726	81.9142
911.137	80.8463
913.547	74.2662
915.958	70.7731
918.368	62.8737
920.779	51.5241
923.189	39.2312
925.6	24.0891
928.011	14.5027
930.421	6.1324
932.832	1.94616
935.242	0.28941
937.653	0.3517
940.063	0.355955
942.474	0.382453
944.885	2.46423
947.295	7.40722
949.706	11.3582
952.116	15.141
954.527	16.8093
956.938	16.3411
959.348	14.8142
961.759	10.4212
964.169	8.58256
966.58	8.09418
968.99	8.68059
971.401	9.84807
973.812	10.3905
976.222	9.12359
978.633	5.84193
981.043	4.21142
983.454	1.80108
985.865	0.745595
988.275	0.615408
990.686	1.4626
993.096	0.458443
995.507	2.26062
997.918	1.7383
1000.33	0.951138
1002.74	0.434209
1005.15	0.61764
1007.56	0.242937
1009.97	0.095562
1012.38	1.18801
1014.79	2.53975
1017.2	3.55744
1019.61	3.02352
1022.02	3.50219
1024.43	4.09935
1026.85	5.16121
1029.26	7.12935
1031.67	7.03207
1034.08	7.17938
1036.49	9.46173
1038.9	8.89039
1041.31	10.4144
1043.72	9.62085
1046.13	8.8656
1048.54	7.63148
1050.95	6.81989
1053.36	4.24928
1055.77	3.40078
1058.18	1.17936
1060.59	0.086347
1063	0.18811
1065.41	0.349045
1067.82	1.75727
1070.23	1.43874
1072.65	0.263479
1075.06	0.088743
1077.47	3.00847
1079.88	1.48971
