Measurement: Raman, 532 nm, unoriented, Raman Data Processed
Mineral: Wohlerite
Rruff sample: R050275
Ideal chemistry: NaCa_2_(Zr,Nb)(Si_2_O_7_)(O,F)_2_
Locality: Langesundsfjord, Norway
Source: Marcus Origlieri
Description: Yellowish brown granular
Raman shift (cm-1)	intensity
139.789	0
142.681	9.0824
145.574	1.6106
148.467	13.913
151.359	27.8638
154.252	45.6238
157.145	79.3313
160.038	133.953
162.93	182.552
165.823	143.933
168.716	74.4727
171.608	24.5815
174.501	8.00012
177.394	5.31409
180.286	19.7091
183.179	33.3423
186.072	53.797
188.965	64.1924
191.857	89.6664
194.75	107.376
197.643	116.707
200.535	97.2062
203.428	84.615
206.321	80.4419
209.214	82.3557
212.106	79.2849
214.999	78.8811
217.892	62.1539
220.784	39.1107
223.677	14.1571
226.57	2.84485
229.462	8.17261
232.355	3.30933
235.248	3.54248
238.141	0.284302
241.033	2.14392
243.926	5.38696
246.819	12.452
249.711	11.4712
252.604	24.7753
255.497	38.7308
258.389	35.8716
261.282	45.7105
264.175	55.2588
267.067	69.8555
269.96	68.0007
272.853	51.2377
275.746	51.5923
278.638	50.7656
281.531	58.4259
284.424	63.3688
287.316	91.8927
290.209	111.118
293.102	155.024
295.995	214.8
298.887	271.567
301.78	294.92
304.673	282.086
307.565	269.476
310.458	248.953
313.351	237.369
316.243	210.1
319.136	185.728
322.029	152.197
324.921	141.688
327.814	141.749
330.707	150.468
333.6	150.034
336.492	126.261
339.385	92.5299
342.278	56.9404
345.17	28.5929
348.063	2.646
350.956	18.2726
353.849	11.708
356.741	4.10022
359.634	22.5891
362.527	60.1781
365.419	108.25
368.312	161.032
371.205	231.812
374.097	306.403
376.99	375.257
379.883	441.829
382.776	553.61
385.668	690.393
388.561	801.819
391.454	777.979
394.346	618.252
397.239	469.289
400.132	382.5
403.024	329.915
405.917	306.254
408.81	278.915
411.702	259.542
414.595	258.175
417.488	258.419
420.381	236.807
423.273	216.484
426.166	195.88
429.059	179.1
431.951	177.288
434.844	161.421
437.737	144.348
440.63	100.888
443.522	51.0491
446.415	19.4229
449.308	7.75842
452.2	18.1609
455.093	12.8059
457.986	8.72107
460.878	14.6028
463.771	48.4513
466.664	94.9755
469.557	142.385
472.449	185.001
475.342	258.895
478.235	339.673
481.127	410
484.02	430.172
486.913	401.836
489.805	317.96
492.698	216.469
495.591	148.588
498.483	112.277
501.376	100.553
504.269	108.884
507.162	112.181
510.054	102.582
512.947	76.64
515.84	61.2538
518.732	80.4429
521.625	116.348
524.518	165.445
527.41	239.803
530.303	333.117
533.196	441.181
536.089	572.576
538.981	698.859
541.874	875.034
544.767	1071.38
547.659	1187.44
550.552	1136.74
553.445	962.922
556.337	795.263
559.23	678.132
562.123	547.747
565.016	383.909
567.908	236.197
570.801	130.553
573.694	60.2974
576.586	22.8065
579.479	5.19177
582.372	4.02673
585.264	10.3431
588.157	10.6096
591.05	11.1031
593.942	10.3636
596.835	38.2618
599.728	75.0024
602.621	122.941
605.513	171.679
608.406	225.895
611.299	285.874
614.191	338.225
617.084	377.571
619.977	378.108
622.87	346.483
625.762	295.87
628.655	247.228
631.548	195.74
634.44	154.222
637.333	139.316
640.226	134.577
643.118	143.467
646.011	154.45
648.904	190.555
651.797	232.008
654.689	277.239
657.582	289.969
660.475	253.173
663.367	213.8
666.26	175.723
669.153	148.965
672.045	117.841
674.938	96.0148
677.831	72.0769
680.723	36.892
683.616	23.6693
686.509	2.54748
689.402	6.43799
692.294	7.56604
695.187	9.276
698.08	15.1316
700.972	13.355
703.865	7.91748
706.758	5.64917
709.65	1.34253
712.543	11.8414
715.436	14.0319
718.329	22.5094
721.221	29.174
724.114	31.261
727.007	29.6248
729.899	33.9724
732.792	47.1156
735.685	78.5454
738.577	130.464
741.47	221.63
744.363	340.897
747.256	504.943
750.148	665.713
753.041	814.465
755.934	898.293
758.826	870.14
761.719	721.617
764.612	502.421
767.505	303.256
770.397	164.945
773.29	97.1167
776.183	76.084
779.075	65.0134
781.968	81.4939
784.861	119.548
787.753	173.747
790.646	266.471
793.539	422.842
796.432	663.745
799.324	1020.79
802.217	1472.7
805.11	2019.3
808.002	2582.65
810.895	3020.05
813.788	3061.19
816.68	2573.31
819.573	1803.48
822.466	1147.34
825.359	719.567
828.251	478.334
831.144	360.332
834.037	316.227
836.929	289.524
839.822	274.428
842.715	263.053
845.607	263.416
848.5	271.196
851.393	250.857
854.285	189.172
857.178	120.715
860.071	61.2268
862.964	31.618
865.856	8.05688
868.749	5.45081
871.642	13.5123
874.534	24.6005
877.427	21.5791
880.32	13.9479
883.212	3.39099
886.105	41.8597
888.998	97.0024
891.891	177.194
894.783	274.544
897.676	388.485
900.569	493.62
903.461	595.194
906.354	645.913
909.247	659.118
912.139	627.983
915.032	572.215
917.925	508.334
920.818	467.342
923.71	419.226
926.603	376.596
929.496	330.146
932.388	286.719
935.281	244.503
938.174	208.575
941.067	187.41
943.959	177.256
946.852	187.267
949.745	193.367
952.637	198.009
955.53	189.694
958.423	177.107
961.315	161.364
964.208	156.094
967.101	162.268
969.994	165.299
972.886	168.061
975.779	148.975
978.672	105.432
981.564	69.0338
984.457	32.6694
987.35	15.3127
990.242	0.044434
993.135	5.98328
996.028	6.94897
998.92	4.2135
1001.81	1.41138
1004.71	12.663
1007.6	25.0334
1010.49	42.1207
1013.38	60.6837
1016.28	80.1891
1019.17	96.7892
1022.06	117.42
1024.95	139.97
1027.85	151.804
1030.74	167.415
1033.63	175.408
1036.53	194.959
1039.42	204.652
1042.31	212.885
1045.2	218.179
1048.1	204.474
1050.99	186.109
1053.88	164.523
1056.77	147.91
1059.67	130.257
1062.56	105.962
1065.45	90.0986
1068.35	69.0991
1071.24	57.764
1074.13	45.6013
1077.02	39.3075
1079.92	25.7985
1082.81	21.2041
1085.7	12.1433
1088.59	8.052
1091.49	1.07849
1094.38	1.46545
1097.27	3.91772
1100.16	4.8645
1103.06	2.71863
1105.95	1.38061
1108.84	2.20935
1111.74	7.68237
1114.63	5.64929
1117.52	11.0308
1120.41	11.4264
1123.31	14.8976
1126.2	4.83887
1129.09	19.6095
1131.98	19.0507
1134.88	22.8164
1137.77	21.6805
1140.66	18.7134
1143.56	25.3915
1146.45	20.0125
1149.34	20.8888
1152.23	15.4827
1155.13	16.3171
1158.02	13.8502
1160.91	15.3544
1163.8	14.5547
1166.7	17.0096
1169.59	11.8816
1172.48	15.3114
1175.38	13.4093
1178.27	10.5426
1181.16	11.3328
1184.05	9.10364
1186.95	3.4823
1189.84	10.9748
1192.73	8.47351
1195.62	5.53064
1198.52	10.1293
1201.41	2.40784
1204.3	3.31299
1207.19	5.47339
1210.09	5.64966
1212.98	3.37708
1215.87	5.23669
1218.77	7.46057
1221.66	2.16894
1224.55	0.280273
1227.44	2.82007
1230.34	2.55139
1233.23	7.13525
1236.12	6.72803
1239.02	2.08008
