Measurement: Raman, 780 nm, unoriented, Raman Data Processed
Mineral: Wolfeite
Rruff sample: R050614
Ideal chemistry: Fe^2+^_2_PO_4_(OH)
Locality: Hagendorf, Bavaria
Source: University of Arizona Mineral Museum
Description: Reddish-brown elongated prismatic crystals
Measured chemistry: (Fe^2+^_1.49_Mn^2+^_0.49_Mg_0.02_)_Î£=2_(P_1.00_O_4_)(OH)
Raman shift (cm-1)	intensity
145.098	0
147.991	4.02428
150.884	10.4246
153.776	13.2113
156.669	6.99092
159.562	1.43517
162.454	1.11975
165.347	0.316102
168.24	-0.115805
171.132	0.798706
174.025	1.8642
176.918	2.17435
179.811	2.21907
182.703	0.379593
185.596	1.0322
188.489	1.20909
191.381	1.66388
194.274	5.12436
197.167	6.7618
200.06	7.16678
202.952	5.573
205.845	5.0153
208.738	4.53021
211.63	4.65648
214.523	4.8113
217.416	5.07622
220.308	3.40784
223.201	1.7962
226.094	0.611832
228.987	0.138458
231.879	0.008698
234.772	2.09068
237.665	1.54799
240.557	1.69316
243.45	1.93413
246.343	4.55856
249.235	4.3217
252.128	4.37848
255.021	4.18797
257.913	5.24442
260.806	5.28807
263.699	7.70593
266.592	8.17807
269.484	10.2266
272.377	12.1445
275.27	13.1763
278.162	12.0073
281.055	13.8509
283.948	12.6647
286.84	12.1216
289.733	11.6541
292.626	11.3208
295.519	10.4141
298.411	8.40968
301.304	7.57373
304.197	7.31996
307.089	4.22363
309.982	5.12727
312.875	3.28265
315.767	1.92436
318.66	2.99728
321.553	1.22136
324.445	0.614517
327.338	0.541931
330.231	0.90419
333.124	0.512039
336.016	0.137909
338.909	0.136261
341.802	0.485641
344.694	0.545944
347.587	0.120819
350.48	0.577347
353.373	0.580429
356.265	0.672897
359.158	1.10938
362.051	0.058029
364.943	0.549057
367.836	0.397034
370.729	2.46901
373.621	1.27745
376.514	2.06099
379.407	3.24849
382.3	3.96492
385.192	4.61076
388.085	8.75461
390.978	10.6068
393.87	14.8199
396.763	21.7415
399.656	29.9912
402.548	40.5256
405.441	51.5008
408.334	62.3832
411.226	72.146
414.119	75.1771
417.012	73.5833
419.904	67.2755
422.797	58.854
425.69	45.2708
428.583	31.2797
431.475	22.7348
434.368	18.0302
437.261	14.6945
440.153	14.1536
443.046	15.6373
445.939	15.8407
448.832	17.5453
451.724	21.6676
454.617	22.9988
457.51	23.4569
460.402	21.7928
463.295	20.0589
466.188	16.2701
469.08	13.5975
471.973	9.34416
474.866	7.63849
477.759	8.56122
480.651	5.00177
483.544	4.36537
486.437	2.73126
489.329	3.63174
492.222	1.55252
495.115	2.25304
498.007	3.21083
500.9	0.717987
503.793	1.71648
506.685	0.138046
509.578	0.872742
512.471	0.308121
515.364	0.44281
518.256	0.228355
521.149	0.411331
524.042	0.577278
526.934	1.22929
529.827	0.185509
532.72	1.0274
535.612	0.417931
538.505	1.06522
541.398	3.70758
544.291	5.22147
547.183	5.85043
550.076	9.37572
552.969	14.3757
555.861	14.8952
558.754	17.338
561.647	18.0744
564.539	19.8623
567.432	21.4177
570.325	25.6336
573.217	28.5052
576.11	30.0585
579.003	32.9509
581.896	34.5374
584.788	36.2993
587.681	36.6286
590.574	36.8316
593.466	39.9719
596.359	42.1257
599.252	43.572
602.144	43.6087
605.037	41.2439
607.93	36.2476
610.823	29.0081
613.715	21.8178
616.608	14.9204
619.501	9.84233
622.393	7.47023
625.286	7.09601
628.179	3.1378
631.072	2.46384
633.964	1.67114
636.857	0.513962
639.75	0.82563
642.642	0.330673
645.535	0.124435
648.428	0.615578
651.32	0.055756
654.213	0.111992
657.106	0.3367
659.999	0.456322
662.891	0.568687
665.784	0.384117
668.677	1.36148
671.569	1.22339
674.462	1.26469
677.355	1.23181
680.247	1.05831
683.14	1.20088
686.033	1.30865
688.926	1.40108
691.818	2.34596
694.711	2.33569
697.604	1.33176
700.496	3.16177
703.389	2.34696
706.282	1.87555
709.174	1.89458
712.067	1.2354
714.96	1.40326
717.852	1.81819
720.745	1.72764
723.638	1.1861
726.53	1.659
729.423	2.27196
732.316	2.02289
735.209	1.59873
738.101	2.19962
740.994	1.30796
743.887	2.43896
746.779	1.02113
749.672	2.10879
752.565	1.6432
755.457	2.15015
758.35	1.39385
761.243	1.14829
764.136	0.029823
767.028	0.59761
769.921	2.20637
772.814	0.570358
775.706	0.298294
778.599	1.41769
781.492	0.981606
784.385	0.561745
787.277	0.385513
790.17	0.108116
793.063	1.26897
795.955	1.55038
798.848	0.58886
801.741	0.281113
804.633	0.288551
807.526	1.72565
810.419	1.18137
813.312	1.03931
816.204	1.151
819.097	1.121
821.99	0.740845
824.882	1.40527
827.775	1.18732
830.668	0.818733
833.56	1.51213
836.453	0.434547
839.346	1.3634
842.239	1.82924
845.131	1.60519
848.024	3.49104
850.917	1.76541
853.809	3.03283
856.702	2.83838
859.595	2.91581
862.487	4.17765
865.38	4.24808
868.273	2.79671
871.165	3.38444
874.058	2.49105
876.951	2.9946
879.843	1.87511
882.736	2.32412
885.629	2.54568
888.522	2.27616
891.414	0.442627
894.307	1.02833
897.2	0.886574
900.092	0.817795
902.985	1.17033
905.878	0.233932
908.77	0.618645
911.663	1.01591
914.556	0.316246
917.449	0.42099
920.341	0.675079
923.234	1.6786
926.127	2.7541
929.019	5.29238
931.912	9.73402
934.805	15.6822
937.697	28.7255
940.59	45.9444
943.483	73.2925
946.376	109.025
949.268	153.258
952.161	200.708
955.054	242.134
957.946	260.134
960.839	251.762
963.732	241.027
966.625	252.854
969.517	284.723
972.41	278.035
975.303	198.443
978.195	105.062
981.088	52.8943
983.981	28.1052
986.873	14.4096
989.766	7.8002
992.659	3.98508
995.552	2.98757
998.444	2.69319
1001.34	2.97184
1004.23	4.0738
1007.12	6.39643
1010.01	7.96823
1012.91	9.63797
1015.8	9.38825
1018.69	10.0544
1021.59	7.30568
1024.48	4.41185
1027.37	3.6442
1030.26	1.6389
1033.16	1.30417
1036.05	0.953559
1038.94	0.193529
1041.84	0.165277
1044.73	0.419682
1047.62	1.61779
1050.51	3.33321
1053.4	4.09343
1056.3	5.81427
1059.19	6.92993
1062.08	4.63251
1064.98	2.86019
1067.87	0.473366
1070.76	0.163599
1073.65	0.254826
1076.55	0.934517
1079.44	2.67442
1082.33	5.24796
1085.22	7.07613
1088.12	7.11487
1091.01	7.36562
1093.9	6.09641
1096.8	2.93142
1099.69	2.22564
1102.58	2.94473
1105.47	3.0039
1108.37	2.76739
1111.26	2.19661
1114.15	0.444656
1117.05	0.860287
1119.94	0.50985
1122.83	0.597542
1125.72	0.276363
1128.62	1.16095
1131.51	0.978756
1134.4	1.23294
1137.29	0.994965
1140.19	0.72995
1143.08	1.53022
1145.97	1.58822
1148.87	2.92149
1151.76	2.66067
1154.65	3.70501
1157.54	1.56113
1160.43	2.3214
1163.33	3.07846
1166.22	3.80657
1169.11	4.2295
1172.01	3.4753
1174.9	4.17072
1177.79	3.54971
1180.68	2.85017
1183.58	2.51988
1186.47	2.18034
1189.36	3.16376
1192.26	2.80108
1195.15	3.14785
1198.04	2.32956
1200.93	2.38784
1203.83	2.15706
1206.72	1.7655
1209.61	1.4557
1212.5	3.15202
1215.4	1.88962
1218.29	1.99616
1221.18	1.5247
1224.08	1.80055
1226.97	2.74923
1229.86	2.63811
1232.75	1.70501
1235.64	1.43465
1238.54	1.77481
1241.43	1.44659
1244.32	1.12881
1247.22	0.350109
1250.11	0.461983
1253	1.59139
1255.89	0.745823
1258.79	0.36578
1261.68	0.471825
1264.57	0.928036
1267.46	1.34179
1270.36	1.697
1273.25	1.49131
1276.14	1.45315
1279.04	1.21483
1281.93	1.17236
1284.82	0.413395
