Measurement: Raman, 780 nm, unoriented, Raman Data Processed
Mineral: Wolfeite
Rruff sample: R060545
Ideal chemistry: Fe^2+^_2_PO_4_(OH)
Locality: Big Fish River, Yukon Territory, Canada
Source: Michael Scott
Description: Orange-brown fragment
Measured chemistry: (Fe^2+^_1.72_Mg_0.22_Mn_0.06_)_Σ=2_P_1.00_O_4_((OH)_0.87_F_0.13_)_Σ=1_; (OH) estimated by difference and charge balance
Raman shift (cm-1)	intensity
159.056	0
161.949	2.58792
164.842	5.32251
167.734	1.49756
170.627	1.23193
173.52	1.49744
176.412	1.25954
179.305	0.35759
182.198	2.85812
185.09	2.29672
187.983	0.366028
190.876	1.13078
193.769	0.934402
196.661	1.37074
199.554	0.73703
202.447	1.6557
205.339	0.812622
208.232	1.79242
211.125	0.104675
214.018	1.57312
216.91	2.13104
219.803	1.17412
222.696	4.048
225.588	2.75867
228.481	5.07605
231.374	4.72815
234.266	3.55441
237.159	3.60982
240.052	5.79564
242.945	6.10074
245.837	6.00725
248.73	6.8714
251.623	5.18198
254.515	3.36565
257.408	4.28683
260.301	3.23354
263.193	6.19118
266.086	2.65414
268.979	1.92102
271.872	0.465378
274.764	0.523788
277.657	0.313309
280.55	0.848618
283.442	1.43391
286.335	0.747772
289.228	3.60226
292.12	0.739624
295.013	3.06061
297.906	3.5103
300.798	2.8381
303.691	1.41746
306.584	0.921692
309.476	1.33579
312.369	0.968521
315.262	1.87924
318.155	2.56053
321.047	3.11606
323.94	1.99798
326.833	0.972702
329.725	1.37606
332.618	1.51707
335.511	0.474548
338.404	0.415314
341.296	0.884033
344.189	0.059166
347.082	0.665787
349.974	1.09963
352.867	0.444534
355.76	0.697411
358.652	0.159012
361.545	0.211082
364.438	0.449043
367.33	0.8144
370.223	1.13738
373.116	1.5016
376.009	0.942284
378.901	0.597916
381.794	0.800247
384.687	1.14766
387.579	2.82508
390.472	2.25319
393.365	2.47824
396.257	3.33172
399.15	4.77902
402.043	6.41136
404.935	9.70086
407.828	15.2071
410.721	20.5132
413.614	26.7679
416.506	34.4453
419.399	38.8766
422.292	38.2235
425.184	36.0342
428.077	30.1378
430.97	21.5392
433.863	15.4511
436.755	10.3757
439.648	6.51858
442.541	5.64046
445.433	4.36512
448.326	4.27757
451.219	3.9824
454.111	6.84565
457.004	8.49375
459.897	10.9174
462.789	11.4649
465.682	12.3764
468.575	12.7594
471.468	11.2072
474.36	9.80296
477.253	9.43851
480.146	5.88635
483.038	3.78716
485.931	3.05026
488.824	3.58538
491.716	2.6554
494.609	2.76519
497.502	3.17102
500.395	3.33623
503.287	2.28608
506.18	3.0923
509.073	0.898788
511.965	1.46242
514.858	1.74508
517.751	0.139572
520.644	1.07095
523.536	1.32336
526.429	0.135994
529.322	0.16803
532.214	0.150414
535.107	0.572968
538	0.478172
540.892	0.780502
543.785	0.817703
546.678	1.17969
549.57	3.5572
552.463	4.28795
555.356	6.06306
558.249	8.3158
561.141	9.8558
564.034	10.8026
566.927	12.0929
569.819	14.3602
572.712	17.5795
575.605	19.7252
578.497	21.4964
581.39	21.0214
584.283	22.3419
587.176	24.1906
590.068	24.9605
592.961	25.1906
595.854	26.0742
598.746	24.731
601.639	22.2449
604.532	21.5615
607.424	20.5567
610.317	19.59
613.21	18.5818
616.102	16.5936
618.995	12.1518
621.888	9.66147
624.781	6.4563
627.673	4.34587
630.566	3.26027
633.459	4.14675
636.351	1.38496
639.244	1.23181
642.137	0.012024
645.029	0.639801
647.922	0.141724
650.815	0.419235
653.708	0.077087
656.6	0.521561
659.493	0.571815
662.386	0.934814
665.278	0.86216
668.171	0.456619
671.064	1.44157
673.957	0.412369
676.849	1.40794
679.742	0.987526
682.635	1.50759
685.527	1.30551
688.42	1.87142
691.313	0.116348
694.205	2.72897
697.098	2.38499
699.991	0.758041
702.884	2.99901
705.776	1.95981
708.669	2.39861
711.562	1.59503
714.454	2.55958
717.347	1.46578
720.24	2.1703
723.132	2.00515
726.025	1.21531
728.918	0.336838
731.81	0.010078
734.703	0.106476
737.596	0.192062
740.489	0.066345
743.381	1.48874
746.274	0.509285
749.167	0.491165
752.059	0.773186
754.952	0.018761
757.845	1.44452
760.737	0.106575
763.63	0.805603
766.523	1.84096
769.415	0.157303
772.308	0.888542
775.201	1.5539
778.094	2.22479
780.986	1.77736
783.879	1.49379
786.772	1.69373
789.664	1.54869
792.557	1.57583
795.45	1.00781
798.342	1.90309
801.235	2.02255
804.128	1.8156
807.021	2.92809
809.913	2.33507
812.806	1.913
815.699	2.41746
818.591	3.63903
821.484	3.29622
824.377	4.40683
827.269	4.17966
830.162	3.33495
833.055	3.00062
835.948	4.52116
838.84	5.60779
841.733	5.94431
844.626	3.77286
847.518	5.62722
850.411	4.83045
853.304	6.21423
856.197	6.2407
859.089	5.92921
861.982	5.73029
864.875	6.85231
867.767	4.77975
870.66	7.35233
873.553	6.71918
876.445	6.57661
879.338	9.38776
882.231	7.52112
885.123	6.55419
888.016	5.8166
890.909	5.30097
893.802	4.46104
896.694	1.57223
899.587	3.05993
902.48	0.831421
905.372	0.837021
908.265	0.247223
911.158	0.000778
914.05	0.021812
916.943	0.512581
919.836	0.657585
922.729	0.37085
925.621	0.559891
928.514	0.34021
931.407	0.507942
934.299	2.85371
937.192	4.08583
940.085	7.55533
942.977	12.1767
945.87	22.7274
948.763	36.4974
951.655	55.5555
954.548	85.6502
957.441	117.472
960.334	146.203
963.226	152.018
966.119	131.652
969.012	119.935
971.904	135.332
974.797	176.608
977.69	187.385
980.582	140.993
983.475	80.4019
986.368	40.9638
989.261	23.3891
992.153	13.2519
995.046	9.15906
997.939	4.69778
1000.83	4.78675
1003.72	4.67038
1006.62	2.20512
1009.51	1.70456
1012.4	2.89442
1015.29	4.55624
1018.19	6.35829
1021.08	8.06459
1023.97	9.22663
1026.87	10.9951
1029.76	12.1099
1032.65	9.04757
1035.54	8.8241
1038.44	8.69114
1041.33	7.47087
1044.22	5.5717
1047.12	4.12193
1050.01	3.84351
1052.9	1.26428
1055.79	1.16305
1058.68	2.00275
1061.58	2.0012
1064.47	1.52167
1067.36	1.58246
1070.26	0.501801
1073.15	0.319473
1076.04	1.06232
1078.93	0.68486
1081.83	1.09078
1084.72	1.5589
1087.61	4.47794
1090.51	4.71753
1093.4	5.58188
1096.29	5.35148
1099.18	3.96294
1102.08	3.48224
1104.97	1.98313
1107.86	4.97927
1110.75	3.68591
1113.65	4.90308
1116.54	4.39325
1119.43	3.72269
1122.33	2.64563
1125.22	0.937363
1128.11	0.967865
1131	0.878902
1133.9	0.878002
1136.79	0.707718
1139.68	0.172016
1142.57	0.000347
1145.47	0.419395
1148.36	0.049362
1151.25	0.778881
1154.14	1.15533
1157.04	0.392963
1159.93	1.35497
1162.82	0.998516
1165.71	1.39308
1168.61	0.709671
1171.5	1.5241
1174.39	2.14459
1177.29	2.24575
1180.18	0.964134
1183.07	2.18388
1185.96	0.517696
1188.86	1.00044
1191.75	1.47992
1194.64	1.42712
1197.54	1.93404
1200.43	1.22789
1203.32	2.50429
1206.21	1.77241
1209.11	1.20625
1212	2.50562
1214.89	0.572552
1217.78	1.08524
1220.68	1.64016
1223.57	0.587173
1226.46	0.586147
1229.35	2.77417
1232.25	1.58303
1235.14	0.03986
1238.03	0.611809
1240.92	2.10093
1243.82	1.86883
1246.71	0.708496
1249.6	0.66927
1252.5	1.10386
1255.39	0.540279
1258.28	1.3161
1261.17	0.21767
1264.07	0.26881
1266.96	0.797073
1269.85	1.00726
1272.74	0.548279
1275.64	0.220818
1278.53	2.45392
1281.42	1.61378
1284.32	0.065292
