Measurement: Raman, 532 nm, unoriented, Raman Data Processed
Mineral: Wolfeite
Rruff sample: R060545
Ideal chemistry: Fe^2+^_2_PO_4_(OH)
Locality: Big Fish River, Yukon Territory, Canada
Source: Michael Scott
Description: Orange-brown fragment
Measured chemistry: (Fe^2+^_1.72_Mg_0.22_Mn_0.06_)_Σ=2_P_1.00_O_4_((OH)_0.87_F_0.13_)_Σ=1_; (OH) estimated by difference and charge balance
Raman shift (cm-1)	intensity
120.558	0
123.932	329.931
127.307	432.388
130.682	286.343
134.057	161.582
137.432	364.11
140.806	627.393
144.181	411.498
147.556	69.916
150.931	6.363
154.306	197.751
157.68	292.583
161.055	230.297
164.43	55.95
167.805	0.327
171.18	15.328
174.555	14.098
177.929	82.198
181.304	199.059
184.679	231.646
188.054	299.111
191.429	294.714
194.803	287.747
198.178	378.794
201.553	402.543
204.928	362.73
208.303	319.608
211.678	222.72
215.052	153.524
218.427	108.726
221.802	93.299
225.177	74.829
228.552	67.81
231.926	12.8
235.301	7.239
238.676	15.415
242.051	8.506
245.426	15.952
248.801	69.413
252.176	66.448
255.55	98.497
258.925	119.952
262.3	148.827
265.675	198.234
269.05	203.184
272.424	252.422
275.799	284.284
279.174	278.389
282.549	311.002
285.924	341.938
289.298	392.25
292.673	396.469
296.048	379.655
299.423	318.924
302.798	267.523
306.172	229.29
309.547	170.191
312.922	142.898
316.297	111.982
319.672	76.844
323.047	55.353
326.422	50.035
329.796	6.397
333.171	1.615
336.546	26.32
339.921	33.726
343.296	24.491
346.67	13.044
350.045	8.193
353.42	29.986
356.795	16.703
360.17	16.418
363.544	28.537
366.919	49.808
370.294	96.326
373.669	163.293
377.044	238.422
380.419	329.318
383.793	394.481
387.168	447.703
390.543	509.797
393.918	549.166
397.293	592.154
400.668	745.781
404.042	954.909
407.417	1422.55
410.792	2152.51
414.167	3101.07
417.542	4132.03
420.916	4733.04
424.291	4654.2
427.666	3776.75
431.041	2627.82
434.416	1736.51
437.79	1142.6
441.165	812.531
444.54	616.947
447.915	554.673
451.29	563.589
454.665	613.015
458.039	737.783
461.414	873.87
464.789	989.016
468.164	867.585
471.539	709.9
474.914	525.599
478.288	339.514
481.663	252.585
485.038	160.78
488.413	92.664
491.788	63.885
495.162	26.738
498.537	9.446
501.912	37.597
505.287	35.01
508.662	20.973
512.036	22.242
515.411	32.972
518.786	3.458
522.161	23.856
525.536	13.336
528.911	13.431
532.286	2.692
535.66	12.456
539.035	18.334
542.41	66.041
545.785	106.656
549.159	165.748
552.534	295.403
555.909	452.819
559.284	578.845
562.659	665.618
566.034	760.102
569.408	855.008
572.783	935.023
576.158	987.24
579.533	964.78
582.908	1032.25
586.282	1084.6
589.657	1165.67
593.032	1217.12
596.407	1268.78
599.782	1431.6
603.157	1570.87
606.531	1669.79
609.906	1645.88
613.281	1418.32
616.656	1043.68
620.031	738.927
623.406	493.077
626.78	311.383
630.155	171.784
633.53	109.972
636.905	75.398
640.28	33.463
643.654	8.606
647.029	19.183
650.404	13.266
653.779	26.754
657.154	12.055
660.529	32.184
663.903	26.717
667.278	5.23
670.653	21.989
674.028	37.687
677.403	47.371
680.778	48.431
684.152	64.039
687.527	101.262
690.902	138.552
694.277	188.116
697.652	195.394
701.026	232.119
704.401	234.155
707.776	223.068
711.151	215.264
714.526	198.518
717.901	163.795
721.275	90.73
724.65	40.941
728.025	30.029
731.4	12.227
734.775	4.932
738.149	5.736
741.524	15.824
744.899	32.318
748.274	54.463
751.649	70.016
755.023	51.114
758.398	104.613
761.773	60.389
765.148	114.306
768.523	76.927
771.898	105.191
775.272	97.204
778.647	85.148
782.022	71.213
785.397	45.524
788.772	54.206
792.146	79.148
795.521	54.752
798.896	63.204
802.271	59.247
805.646	53.026
809.021	12.482
812.395	9.845
815.77	28.861
819.145	50.086
822.52	52.233
825.895	4.136
829.269	8.128
832.644	4.241
836.019	46.129
839.394	22.278
842.769	13.068
846.144	17.768
849.518	29.398
852.893	72.625
856.268	77.21
859.643	77.953
863.018	117.729
866.393	161.06
869.767	170.869
873.142	234.747
876.517	213.848
879.892	225.067
883.267	242.811
886.641	154.735
890.016	146.598
893.391	120.894
896.766	47.693
900.141	29.648
903.516	24.003
906.89	22.672
910.265	42.43
913.64	20.344
917.015	20.469
920.39	23.54
923.764	111.13
927.139	204.625
930.514	327.261
933.889	488.083
937.264	796.099
940.638	1257.47
944.013	2116.69
947.388	3670.19
950.763	6270.48
954.138	9939.01
957.513	13736.8
960.888	15393.7
964.262	13459.3
967.637	12952.5
971.012	16276.5
974.387	22004.1
977.761	18270.4
981.136	9129.11
984.511	4115.53
987.886	1885.67
991.261	892.762
994.636	328.506
998.01	116.297
1001.38	48.323
1004.76	61.379
1008.13	52.417
1011.51	68.613
1014.88	227.904
1018.26	486.52
1021.63	722.688
1025.01	867.76
1028.38	921.019
1031.76	828.971
1035.13	710.76
1038.51	609.972
1041.88	569.923
1045.26	552.95
1048.63	501.407
1052.01	560.578
1055.38	663.141
1058.76	893.747
1062.13	1116.4
1065.51	974.806
1068.88	572.483
1072.26	217.127
1075.63	107.657
1079.01	120.353
1082.38	247.144
1085.76	398.6
1089.13	428.155
1092.51	365.589
1095.88	296.357
1099.26	227.675
1102.63	137.779
1106.01	91.809
1109.38	81.845
1112.75	97.883
1116.13	81.434
1119.5	10.279
1122.88	18.733
1126.25	23.263
1129.63	16.109
1133	20.345
1136.38	0.315
1139.75	5.145
1143.13	5.114
1146.5	48.54
1149.88	68.122
1153.25	73.288
1156.63	97.031
1160	116.142
1163.38	125.175
1166.75	158.562
1170.13	176.645
1173.5	180.052
1176.88	184.792
1180.25	177.476
1183.62	191.294
1187	170.625
1190.38	149.578
1193.75	119.904
1197.12	96.432
1200.5	95.229
1203.87	81.861
1207.25	98.204
1210.62	91.778
1214	68.79
1217.37	84.234
1220.75	70.447
1224.12	85.265
1227.5	79.579
1230.87	73.855
1234.25	71.139
1237.62	69.592
1241	51.03
1244.37	45.926
1247.75	44.619
1251.12	24.671
1254.5	22.569
1257.87	39.029
1261.25	42.365
1264.62	4.556
1268	5.102
1271.37	34.764
1274.75	3.941
1278.12	54.053
1281.49	11.509
1284.87	32.054
1288.24	1.303
1291.62	0.09
