Measurement: Raman, 532 nm, unoriented, Raman Data Processed
Mineral: Wolfeite
Rruff sample: R050614
Ideal chemistry: Fe^2+^_2_PO_4_(OH)
Locality: Hagendorf, Bavaria
Source: University of Arizona Mineral Museum
Description: Reddish-brown elongated prismatic crystals
Measured chemistry: (Fe^2+^_1.49_Mn^2+^_0.49_Mg_0.02_)_Î£=2_(P_1.00_O_4_)(OH)
Raman shift (cm-1)	intensity
145.112	0
148.487	22.1981
151.862	53.7959
155.237	56.8563
158.612	18.9038
161.987	1.56961
165.361	1.99162
168.736	0.797852
172.111	0.245377
175.486	5.26538
178.861	7.33211
182.235	8.59549
185.61	11.0592
188.985	13.438
192.36	22.6332
195.735	39.0257
199.109	50.6313
202.484	52.2348
205.859	49.6677
209.234	42.5661
212.609	36.8032
215.984	33.9582
219.358	26.918
222.733	16.9421
226.108	9.04263
229.483	9.15447
232.858	0.033783
236.232	0.461319
239.607	1.40144
242.982	3.28876
246.357	3.00822
249.732	6.17503
253.107	8.62155
256.481	10.0423
259.856	15.7342
263.231	19.4746
266.606	28.2781
269.981	36.4328
273.356	42.6246
276.73	48.4635
280.105	57.0026
283.48	63.1048
286.855	68.2143
290.23	69.6783
293.604	61.2118
296.979	50.7986
300.354	40.952
303.729	32.3659
307.104	23.7173
310.479	18.7408
313.853	14.1829
317.228	11.0851
320.603	6.70435
323.978	3.01007
327.353	0.902847
330.728	2.42923
334.102	0.199066
337.477	3.70969
340.852	0.691498
344.227	0.362305
347.602	2.98679
350.976	2.2608
354.351	0.601761
357.726	1.34166
361.101	1.79697
364.476	1.74458
367.851	0.673401
371.225	1.44243
374.6	4.70282
377.975	5.34927
381.35	7.49312
384.725	11.7228
388.099	18.3472
391.474	27.8198
394.849	41.4793
398.224	62.5028
401.599	94.8075
404.974	133.771
408.348	180.039
411.723	222.416
415.098	235.045
418.473	216.722
421.848	182.622
425.223	138.557
428.597	92.5726
431.972	59.4543
435.347	44.2298
438.722	34.7472
442.097	33.5134
445.471	33.979
448.846	38.7688
452.221	45.7013
455.596	52.9778
458.971	54.7115
462.346	52.3498
465.72	41.7854
469.095	33.9736
472.47	24.3675
475.845	18.8591
479.22	15.9123
482.594	14.1079
485.969	13.0271
489.344	11.6687
492.719	10.3978
496.094	8.03891
499.469	5.53265
502.843	5.01167
506.218	2.5258
509.593	0.589508
512.968	1.45138
516.343	1.49387
519.717	1.59206
523.092	0.987656
526.467	2.19676
529.842	1.32516
533.217	0.767334
536.592	3.02492
539.966	6.55789
543.341	12.4518
546.716	21.6502
550.091	34.6254
553.466	49.6702
556.841	66.2432
560.215	77.8118
563.59	76.1367
566.965	76.3899
570.34	86.2507
573.715	91.7776
577.09	100.287
580.464	109.831
583.839	114.75
587.214	125.059
590.589	140.858
593.964	164.535
597.338	189.057
600.713	206.564
604.088	210.564
607.463	191.648
610.838	148.031
614.212	104.582
617.587	71.0852
620.962	47.6627
624.337	29.8687
627.712	18.0014
631.087	10.5281
634.462	6.81293
637.836	4.03847
641.211	1.88915
644.586	2.18738
647.961	1.4426
651.336	0.889023
654.71	0.579681
658.085	1.47585
661.46	0.619064
664.835	0.882736
668.21	0.270111
671.585	0.837479
674.959	1.60806
678.334	2.1993
681.709	1.7895
685.084	2.79806
688.459	2.70842
691.833	3.84747
695.208	5.03049
698.583	5.89529
701.958	6.27947
705.333	7.07449
708.707	5.47044
712.082	6.02266
715.457	4.43163
718.832	4.85054
722.207	5.70419
725.582	5.52852
728.957	7.07562
732.331	5.97122
735.706	7.82506
739.081	11.7777
742.456	11.4868
745.831	11.4245
749.205	12.0998
752.58	10.8845
755.955	13.5908
759.33	9.688
762.705	8.62997
766.08	5.32175
769.454	4.7207
772.829	4.31705
776.204	1.70006
779.579	1.67853
782.954	1.35147
786.328	0.478577
789.703	0.540863
793.078	0.32338
796.453	1.0314
799.828	2.17291
803.202	3.15877
806.577	2.52852
809.952	2.84583
813.327	3.31938
816.702	3.70962
820.077	3.71852
823.452	4.26708
826.826	5.03256
830.201	5.75899
833.576	5.87843
836.951	5.02414
840.326	5.45677
843.7	5.57065
847.075	5.6967
850.45	4.16287
853.825	3.86165
857.2	2.75928
860.574	3.09746
863.949	2.3528
867.324	2.28703
870.699	2.93899
874.074	0.86055
877.449	0.015747
880.823	0.170135
884.198	0.340454
887.573	0.091873
890.948	0.827423
894.323	2.46191
897.697	0.683884
901.072	0.333603
904.447	2.08217
907.822	2.536
911.197	5.80035
914.572	10.1193
917.947	13.5732
921.321	18.9947
924.696	27.3044
928.071	39.3092
931.446	60.471
934.821	94.2827
938.195	152.607
941.57	259.009
944.945	446.639
948.32	737.768
951.695	1127.2
955.069	1555.35
958.444	1787.56
961.819	1651.1
965.194	1574.04
968.569	1871.96
971.944	2234.37
975.318	1757.59
978.693	845.944
982.068	358.917
985.443	161.027
988.818	72.6962
992.192	30.6936
995.567	6.98502
998.942	0.897491
1002.32	2.39072
1005.69	1.85007
1009.07	14.9585
1012.44	32.8625
1015.82	44.0704
1019.19	41.1117
1022.57	27.9037
1025.94	13.4229
1029.32	5.29239
1032.69	1.42273
1036.07	0.867432
1039.44	4.27582
1042.82	12.6739
1046.19	23.4801
1049.56	39.8394
1052.94	61.7336
1056.31	89.5653
1059.69	102.858
1063.06	80.0431
1066.44	44.9268
1069.81	24.8427
1073.19	17.9377
1076.56	18.2873
1079.94	27.4042
1083.31	39.7835
1086.69	44.7033
1090.06	42.1526
1093.44	32.529
1096.81	21.586
1100.19	13.773
1103.56	11.2593
1106.94	10.9345
1110.31	7.43762
1113.69	2.98517
1117.06	0.909943
1120.44	2.03864
1123.81	1.85912
1127.18	0.876343
1130.56	1.15208
1133.93	2.07752
1137.31	4.46407
1140.68	5.30307
1144.06	7.66985
1147.43	9.48167
1150.81	10.4449
1154.18	13.482
1157.56	14.6928
1160.93	16.7799
1164.31	17.6494
1167.68	18.9773
1171.06	18.4835
1174.43	18.7197
1177.81	16.7125
1181.18	15.4971
1184.56	13.2968
1187.93	12.5221
1191.31	10.4058
1194.68	9.51692
1198.06	9.36925
1201.43	9.46345
1204.81	9.58514
1208.18	9.83054
1211.56	9.52605
1214.93	9.70488
1218.31	9.52843
1221.68	8.42374
1225.06	8.17847
1228.43	7.84776
1231.81	6.8253
1235.18	6.14752
1238.55	5.03946
1241.93	5.10722
1245.3	4.50301
1248.68	2.46225
1252.05	1.89123
1255.43	1.33539
1258.8	1.56647
1262.18	1.41003
1265.55	0.422485
1268.93	0.769287
1272.3	0.488541
1275.68	0.435547
1279.05	0.196762
1282.43	0.363754
1285.8	0.191017
1289.18	1.38551
1292.55	1.26035
1295.93	0.353874
1299.3	0.675224
1302.68	0.501747
