Measurement: Raman, 785 nm, unoriented, Raman Data Processed
Mineral: Wollastonite
Rruff sample: R040131
Ideal chemistry: CaSiO_3_
Locality: In-Ne-Koh-Pah Gorge, Jacumba, San Diego County, California, USA
Source: University of Arizona Mineral Museum
Description: White coarsely crystalline massive
Measured chemistry: Ca_1.01_Si_1.00_O_3_
Raman shift (cm-1)	intensity
152.865	0
155.758	6.72555
158.65	8.55313
161.543	4.55954
164.436	95.9084
167.329	154.022
170.221	122.462
173.114	100.165
176.007	191.253
178.899	46.3199
181.792	19.8588
184.685	44.5785
187.577	89.8867
190.47	148.277
193.363	118.649
196.255	40.1693
199.148	36.4374
202.041	21.0047
204.934	0.825592
207.826	0.663666
210.719	2.00446
213.612	3.31357
216.504	11.6816
219.397	47.4773
222.29	103.773
225.182	183.691
228.075	146.517
230.968	69.7442
233.861	55.798
236.753	70.8819
239.646	58.455
242.539	48.6337
245.432	61.4982
248.324	85.432
251.217	111.844
254.11	130.254
257.002	61.3903
259.895	41.0887
262.788	15.3887
265.68	33.9738
268.573	33.4693
271.466	14.9709
274.358	3.01816
277.251	36.9052
280.144	71.9691
283.037	65.6903
285.929	25.4724
288.822	38.2302
291.715	52.4716
294.607	102.639
297.5	129.408
300.393	260.599
303.285	402.981
306.178	330.243
309.071	161.144
311.964	204.036
314.856	316.469
317.749	468.234
320.642	460.075
323.534	362.31
326.427	340.586
329.32	305.397
332.212	339.001
335.105	422.92
337.998	427.946
340.891	496.774
343.783	473.316
346.676	234.582
349.569	115.757
352.461	31.1224
355.354	17.9778
358.247	5.62558
361.14	0.904388
364.032	2.8067
366.925	3.75955
369.818	1.23755
372.71	4.08871
375.603	3.18381
378.496	14.4481
381.388	57.4892
384.281	137.854
387.174	255.73
390.067	268.648
392.959	153.377
395.852	144.364
398.745	249.74
401.637	347.708
404.53	420.999
407.423	518.696
410.315	665.254
413.208	716.829
416.101	451.868
418.994	199.676
421.886	103.938
424.779	80.0244
427.672	27.0665
430.564	34.7589
433.457	46.9031
436.35	48.5991
439.242	89.124
442.135	101.452
445.028	96.2416
447.921	54.6715
450.813	14.8351
453.706	6.57224
456.599	38.2826
459.491	60.1229
462.384	156.378
465.277	272.615
468.169	266.791
471.062	87.6899
473.955	23.8273
476.848	26.1608
479.74	13.1167
482.633	19.7258
485.526	54.6384
488.418	58.5142
491.311	50.709
494.204	36.6352
497.097	27.9302
499.989	34.32
502.882	28.6849
505.775	43.5497
508.667	44.1726
511.56	31.7629
514.453	4.29816
517.346	1.7648
520.238	3.08914
523.131	2.31928
526.024	18.7882
528.916	2.47601
531.809	7.27902
534.702	16.6065
537.594	6.33307
540.487	17.8322
543.38	6.7193
546.273	17.8424
549.165	5.47327
552.058	1.95596
554.951	6.38037
557.843	3.3436
560.736	15.4911
563.629	17.8967
566.521	15.0496
569.414	24.8604
572.307	57.2643
575.2	117.279
578.092	177.263
580.985	196.478
583.878	152.305
586.77	91.3979
589.663	59.2571
592.556	43.2971
595.448	28.057
598.341	37.7795
601.234	51.213
604.127	49.4924
607.019	60.3727
609.912	72.8778
612.805	107.175
615.697	144.066
618.59	190.385
621.483	316.38
624.375	504.585
627.268	900.843
630.161	1601.99
633.054	2502.97
635.946	3115.43
638.839	2065.48
641.732	873.912
644.624	426.355
647.517	214.081
650.41	107.867
653.302	52.0545
656.195	49.0779
659.088	33.1488
661.981	18.0218
664.873	2.77612
667.766	5.50754
670.659	9.95664
673.551	11.5953
676.444	38.3312
679.337	74.7774
682.229	135.875
685.122	242.482
688.015	316.038
690.908	229.815
693.8	125.448
696.693	54.5646
699.586	39.3639
702.478	32.4871
705.371	33.6758
708.264	29.0412
711.157	62.8814
714.049	14.2068
716.942	15.579
719.835	0.82373
722.727	1.80881
725.62	7.04184
728.513	6.71466
731.406	7.20587
734.298	7.52493
737.191	7.9581
740.084	6.35236
742.976	11.6313
745.869	2.4816
748.762	12.3269
751.654	17.2536
754.547	24.3556
757.44	14.1014
760.333	38.7629
763.225	29.6764
766.118	14.1968
769.011	14.1195
771.903	17.6347
774.796	1.50351
777.689	20.9323
780.581	27.4074
783.474	26.6236
786.367	27.5773
789.26	34.9125
792.152	34.8724
795.045	26.7394
797.938	24.9896
800.83	13.9798
803.723	24.2667
806.616	36.0946
809.508	36.2212
812.401	29.0543
815.294	30.6768
818.187	46.5828
821.079	28.7305
823.972	31.1429
826.865	26.4402
829.757	35.8025
832.65	14.1033
835.543	17.709
838.435	25.6964
841.328	24.2478
844.221	10.0658
847.114	10.3483
850.006	16.2428
852.899	2.21674
855.792	14.469
858.684	15.2686
861.577	2.8988
864.47	9.86047
867.362	18.1838
870.255	15.0885
873.148	21.1111
876.041	10.2557
878.933	24.4079
881.826	45.7057
884.719	78.7297
887.611	128.723
890.504	128.291
893.397	67.0522
896.289	29.842
899.182	11.6446
902.075	15.5318
904.968	20.0643
907.86	28.5344
910.753	12.7592
913.646	0.765594
916.538	11.0676
919.431	1.7727
922.324	1.05182
925.216	18.7917
928.109	34.1586
931.002	31.129
933.895	4.47144
936.787	7.65329
939.68	2.74344
942.573	4.83365
945.465	28.855
948.358	15.8186
951.251	42.7163
954.144	85.4835
957.036	159.182
959.929	344.678
962.822	847.961
965.714	2019.02
968.607	3986.89
971.5	3259.65
974.393	1081.54
977.285	444.932
980.178	250.209
983.071	153.785
985.963	116.394
988.856	105.596
991.749	156.269
994.641	246.758
997.534	270.487
1000.43	120.769
1003.32	48.8966
1006.21	2.86902
1009.11	17.8738
1012	10.4934
1014.89	22.7619
1017.78	33.413
1020.68	49.3425
1023.57	36.5939
1026.46	14.167
1029.35	14.5129
1032.25	44.8464
1035.14	79.4419
1038.03	203.685
1040.92	520.752
1043.82	836.734
1046.71	551.382
1049.6	216.241
1052.49	86.499
1055.39	66.0753
1058.28	92.6052
1061.17	97.2715
1064.07	60.5287
1066.96	47.3201
1069.85	17.8053
1072.74	14.2148
1075.64	30.8225
1078.53	46.2592
1081.42	69.5605
1084.32	248.081
1087.21	290.143
1090.1	41.7697
1092.99	22.3548
1095.89	3.94208
1098.78	0.006622
1101.67	6.03146
1104.56	10.3852
1107.46	0.651886
1110.35	3.89859
1113.24	1.99646
1116.13	2.93021
1119.03	8.06799
1121.92	13.6099
1124.81	1.36972
1127.71	18.0184
1130.6	28.3197
1133.49	57.7985
1136.38	64.0939
1139.28	106.084
1142.17	95.5463
1145.06	124.486
1147.95	117.556
1150.85	132.497
1153.74	107.095
1156.63	72.5871
1159.53	65.0555
1162.42	61.53
1165.31	54.2544
1168.2	54.9255
1171.1	69.9406
1173.99	26.801
1176.88	55.7987
1179.77	30.0383
1182.67	0.512695
