Measurement: Raman, 780 nm, unoriented, Raman Data Processed
Mineral: Wollastonite
Rruff sample: R120016
Ideal chemistry: CaSiO_3_
Locality: Saint-Sauveur Graphite occurrence, Saint-Sauveur, Les Pays-d'en-Haut RCM, Laurentides, Qu√©bec, Canada
Source: Donald Doell
Description: Massive aggregate of colorless parallel acicular crystals
Raman shift (cm-1)	intensity
92.5678	0
95.9426	63.941
99.3174	263.387
102.692	891.347
106.067	601.795
109.442	336.579
112.817	169.97
116.192	52.9801
119.566	12.6545
122.941	2.3046
126.316	13.7577
129.691	5.01193
133.066	5.63464
136.44	1.06964
139.815	24.3882
143.19	66.5536
146.565	190.741
149.94	210.028
153.315	122.362
156.689	147.222
160.064	196.673
163.439	322.024
166.814	566.384
170.189	709.057
173.563	761.339
176.938	221.802
180.313	141.337
183.688	80.3221
187.063	84.9908
190.437	130.087
193.812	127.34
197.187	22.2357
200.562	6.13538
203.937	6.21637
207.311	0.285828
210.686	13.8143
214.061	31.7473
217.436	65.6697
220.811	113.545
224.186	198.468
227.56	274.161
230.935	168.544
234.31	119.086
237.685	111.629
241.06	57.092
244.435	19.3401
247.809	8.96826
251.184	24.0109
254.559	38.2463
257.934	0.810425
261.309	5.04047
264.683	44.9548
268.058	88.2304
271.433	24.2853
274.808	13.1213
278.183	62.0156
281.558	143.103
284.932	179.987
288.307	186.76
291.682	228.369
295.057	258.917
298.432	257.713
301.806	363.378
305.181	491.987
308.556	379.781
311.931	366.669
315.306	529.886
318.68	801.091
322.055	943.57
325.43	1060.88
328.805	1286.67
332.18	1633.29
335.555	2136.34
338.929	1785.09
342.304	1297.12
345.679	877.861
349.054	366.222
352.429	134.231
355.803	47.2626
359.178	3.38135
362.553	17.4818
365.928	26.3466
369.303	17.1089
372.678	9.65405
376.052	44.5581
379.427	102.677
382.802	216.675
386.177	411.811
389.552	621.253
392.926	605.785
396.301	672.987
399.676	895.688
403.051	1116.9
406.426	976.498
409.8	645.631
413.175	448.638
416.55	323.199
419.925	219.152
423.3	149.083
426.675	102.253
430.049	82.5084
433.424	92.565
436.799	115.732
440.174	150.529
443.549	178.712
446.923	121.341
450.298	52.63
453.673	20.5072
457.048	12.6716
460.423	40.4699
463.798	117.118
467.172	192.344
470.547	80.4183
473.922	9.55023
477.297	7.0921
480.672	20.2352
484.046	47.6697
487.421	93.2179
490.796	145.822
494.171	219.546
497.546	297.316
500.921	336.027
504.295	411.791
507.67	501.726
511.045	456.644
514.42	310.923
517.795	232.918
521.169	191.514
524.544	168.739
527.919	148.726
531.294	123.837
534.669	94.5377
538.044	70.7532
541.418	48.8054
544.793	26.1564
548.168	11.7009
551.543	2.08203
554.918	6.34222
558.293	16.6361
561.667	13.3684
565.042	9.41241
568.417	5.71783
571.792	34.8447
575.167	82.8769
578.541	156.804
581.916	198.573
585.291	136.992
588.666	81.2745
592.041	66.1071
595.415	74.3974
598.79	92.0858
602.165	122.867
605.54	151.023
608.915	191.355
612.29	239.156
615.664	312.587
619.039	436.911
622.414	657.916
625.789	930.505
629.164	1387.33
632.538	2189.94
635.913	3014.48
639.288	2217.03
642.663	957.845
646.038	460.409
649.413	262.134
652.787	158.036
656.162	97.131
659.537	56.6295
662.912	32.0777
666.287	13.5222
669.661	9.98837
673.036	16.299
676.411	36.2158
679.786	76.9816
683.161	152.488
686.535	271.583
689.91	307.289
693.285	171.589
696.66	79.2859
700.035	54.5111
703.41	50.5587
706.784	58.5278
710.159	31.5098
713.534	5.39365
716.909	6.53671
720.284	6.793
723.659	4.21155
727.033	3.38333
730.408	3.5553
733.783	6.25748
737.158	12.4357
740.533	18.8575
743.907	25.6375
747.282	33.547
750.657	38.8299
754.032	41.0671
757.407	47.1591
760.782	47.591
764.156	48.3593
767.531	48.4845
770.906	44.6923
774.281	40.1277
777.656	33.4223
781.03	26.4314
784.405	20.6713
787.78	14.8926
791.155	16.3534
794.53	9.33441
797.904	6.93021
801.279	3.23151
804.654	0.646362
808.029	0.706848
811.404	1.59595
814.779	3.15408
818.153	0.65506
821.528	2.21591
824.903	1.09518
828.278	1.56189
831.653	1.14322
835.028	4.43771
838.402	4.98599
841.777	3.74918
845.152	5.03427
848.527	1.21094
851.902	1.83109
855.276	0.941833
858.651	4.6651
862.026	6.46933
865.401	11.2918
868.776	13.6701
872.15	17.6072
875.525	19.9109
878.9	23.7149
882.275	27.5717
885.65	41.8481
889.024	52.943
892.399	47.415
895.774	27.3999
899.149	24.4865
902.524	23.2407
905.899	23.8431
909.273	24.4862
912.648	21.2724
916.023	16.6921
919.398	16.0768
922.773	12.3501
926.148	12.8237
929.522	12.4636
932.897	7.60666
936.272	4.03397
939.647	0.187164
943.022	3.11194
946.396	11.2715
949.771	46.7972
953.146	117.695
956.521	280.673
959.896	575.872
963.27	985.753
966.645	1996.07
970.02	3864.33
973.395	2129.67
976.77	636.65
980.145	280.946
983.519	170.93
986.894	131.143
990.269	134.383
993.644	189.137
997.019	276.117
1000.39	162.825
1003.77	8.25278
1007.14	36.7755
1010.52	39.3473
1013.89	22.9731
1017.27	20.0629
1020.64	90.4541
1024.02	104.139
1027.39	34.5832
1030.77	16.3961
1034.14	91.6499
1037.52	235.272
1040.89	536.597
1044.27	1083.89
1047.64	802.355
1051.02	250.745
1054.39	114.03
1057.77	113.834
1061.14	160.344
1064.52	151.621
1067.89	162.324
1071.27	214.63
1074.64	290.01
1078.01	379.175
1081.39	474.99
1084.76	561.542
1088.14	639.21
1091.51	678.711
1094.89	730.754
1098.26	729.928
1101.64	749.871
1105.01	746.302
1108.39	766.889
1111.76	750.944
1115.14	736.831
1118.51	728.158
1121.89	717.232
1125.26	680.926
1128.64	659.04
1132.01	620.766
1135.39	591.76
1138.76	562.185
1142.14	513.335
1145.51	457.02
1148.88	395.319
1152.26	331.012
1155.63	272.647
1159.01	219.183
1162.38	176.431
1165.76	126.079
1169.13	94.4923
1172.51	59.0081
1175.88	33.9426
1179.26	12.9676
1182.63	4.70019
1186.01	15.5759
1189.38	24.7147
1192.76	23.8549
1196.13	16.7961
1199.51	1.25549
1202.88	30.6966
1206.26	94.0321
1209.63	150.552
1213.01	242.402
1216.38	349.713
1219.76	445.397
1223.13	513.998
1226.51	571.615
1229.88	512.441
1233.26	469.639
1236.63	403.651
1240.01	307.133
1243.38	240.786
1246.76	209.862
1250.13	195.952
1253.51	183.8
1256.88	161.078
1260.25	138.859
1263.63	95.2764
1267	63.0244
1270.38	24.0662
1273.75	5.58447
1277.13	0.153076
1280.5	4.3147
1283.88	12.7747
