Measurement: Raman, 780 nm, unoriented, Raman Data Processed
Mineral: Wollastonite
Rruff sample: R120122
Ideal chemistry: CaSiO_3_
Locality: Fuka mine, Bicchu-cho, Okayama Prefecture, Japan
Source: Marcus Origlieri
Description: Colorless platy, frozen in matrix, polytype 2M, associated with perovskite R120121, spurrite and gehlenite
Raman shift (cm-1)	intensity
141.822	0.098877
144.714	13.4655
147.607	29.9722
150.5	43.7561
153.393	74.5332
156.285	85.3721
159.178	91.4072
162.071	134.16
164.963	201.839
167.856	172.584
170.749	175.818
173.642	142.496
176.534	99.4978
179.427	55.5247
182.32	47.2095
185.212	62.1562
188.105	67.8975
190.998	69.5574
193.89	46.2363
196.783	24.9936
199.676	14.251
202.569	5.75732
205.461	3.87256
208.354	0.868408
211.247	1.46582
214.139	0.908447
217.032	2.86108
219.925	7.73828
222.817	22.2581
225.71	34.6931
228.603	23.3364
231.495	21.5464
234.388	30.3332
237.281	25.7764
240.173	23.9597
243.066	22.6902
245.959	12.3215
248.852	11.4414
251.744	19.0283
254.637	17.593
257.53	16.6956
260.422	5.84888
263.315	11.0608
266.208	15.8076
269.101	29.9819
271.993	32.4788
274.886	39.7964
277.779	55.4009
280.671	64.1777
283.564	71.8769
286.457	90.4944
289.349	121.457
292.242	170.755
295.135	231.96
298.027	266.724
300.92	297.868
303.813	323.073
306.706	223.056
309.598	174.383
312.491	175.361
315.384	206.897
318.276	243.823
321.169	247.195
324.062	230.271
326.954	246.519
329.847	310.748
332.74	377.027
335.633	392.713
338.525	296.976
341.418	210.77
344.311	129.981
347.203	62.3149
350.096	18.146
352.989	6.218
355.882	3.54639
358.774	5.60986
361.667	1.97607
364.56	6.40991
367.452	8.93237
370.345	8.65454
373.238	1.70923
376.13	14.7478
379.023	26.5549
381.916	49.699
384.808	93.781
387.701	142.769
390.594	199.562
393.486	274.987
396.379	381.984
399.272	480.561
402.165	583.288
405.057	701.66
407.95	878.84
410.843	1088.99
413.735	965.63
416.628	545.453
419.521	285.863
422.413	160.433
425.306	94.0039
428.199	62.3723
431.092	55.8306
433.984	44.7761
436.877	39.9641
439.77	40.0317
442.662	41.5225
445.555	32.5964
448.448	28.0117
451.341	28.0088
454.233	23.4429
457.126	16.1431
460.019	30.5569
462.911	41.6401
465.804	78.5144
468.697	79.8989
471.589	60.5322
474.482	75.7881
477.375	103.388
480.267	161.232
483.16	217.907
486.053	230.444
488.946	148.767
491.838	93.1894
494.731	83.9077
497.624	83.605
500.516	74.8711
503.409	81.9111
506.302	82.1562
509.195	71.4595
512.087	66.0767
514.98	41.4844
517.873	21.791
520.765	28.4565
523.658	12.3335
526.551	7.82373
529.443	0.315918
532.336	14.3677
535.229	16.8032
538.121	10.7715
541.014	1.52295
543.907	5.8999
546.799	6.48291
549.692	22.8462
552.585	28.6758
555.478	19.0669
558.37	16.9966
561.263	6.85742
564.156	15.1289
567.048	24.4595
569.941	20.1665
572.834	21.7178
575.726	40.9697
578.619	56.0425
581.512	49.2134
584.405	40.3477
587.297	34.498
590.19	27.1172
593.083	10.8906
595.975	2.91016
598.868	1.69189
601.761	8.74463
604.654	29.4761
607.546	40.1274
610.439	64.1763
613.332	92.7544
616.224	156.798
619.117	264.623
622.01	418.66
624.902	576.921
627.795	812.888
630.688	1167.25
633.58	1656.83
636.473	1681.5
639.366	972.942
642.259	453.754
645.151	258.209
648.044	179.756
650.937	166.941
653.829	175.801
656.722	168.462
659.615	111.516
662.507	67.0464
665.4	62.7412
668.293	72.5288
671.186	73.8447
674.078	67.5649
676.971	38.4883
679.864	31.6489
682.756	19.9727
685.649	31.2915
688.542	37.6543
691.434	35.812
694.327	20.1396
697.22	9.95654
700.112	5.69727
703.005	9.47998
705.898	4.37891
708.791	3.12256
711.683	1.49902
714.576	9.28076
717.469	8.68115
720.361	0.060547
723.254	8.00586
726.147	2.65478
729.039	6.52295
731.932	6.40869
734.825	8.83057
737.718	8.16357
740.61	8.94824
743.503	9.28076
746.396	10.3516
749.288	16.8472
752.181	21.3403
755.074	10.8018
757.966	7.88623
760.859	18.9273
763.752	11.2744
766.645	11.1606
769.537	3.04736
772.43	8.70508
775.323	7.97314
778.215	2.82666
781.108	5.74902
784.001	20.7539
786.894	23.1079
789.786	17.6074
792.679	21.187
795.572	24.3438
798.464	23.9331
801.357	2.88135
804.25	6.29248
807.142	28.1172
810.035	18.1328
812.928	4.68701
815.82	18.4736
818.713	20.2036
821.606	25.4697
824.499	48.1226
827.391	60.0361
830.284	55.4346
833.177	50.8901
836.069	51.2134
838.962	37.1167
841.855	27.3296
844.747	32.0342
847.64	42.2461
850.533	35.6992
853.426	17.2197
856.318	25.3735
859.211	34.209
862.104	30.7612
864.996	15.8804
867.889	19.8828
870.782	23.5561
873.674	40.3994
876.567	59.8047
879.46	99.5435
882.352	156.651
885.245	239.833
888.138	357.344
891.031	435.026
893.923	308.888
896.816	127.755
899.709	56.7495
902.601	31.7788
905.494	18.0322
908.387	3.76514
911.279	1.89258
914.172	1.47168
917.065	3.18848
919.958	2.47451
922.85	7.03809
925.743	2.68945
928.636	13.374
931.528	5.16113
934.421	6.37885
937.314	6.4707
940.207	15.0146
943.099	25.0537
945.992	50.0996
948.885	65.6436
951.777	110.326
954.67	245.751
957.563	487.203
960.455	740.148
963.348	1150.87
966.241	2035.53
969.133	3156.53
972.026	1699.41
974.919	620.088
977.812	290.923
980.704	192.13
983.597	169.288
986.49	152.114
989.382	112.446
992.275	49.5225
995.168	51.0449
998.06	43.2959
1000.95	20.3447
1003.85	19.9668
1006.74	16.1777
1009.63	19.5742
1012.52	30.5
1015.42	55.3603
1018.31	49.7559
1021.2	22.4873
1024.1	9.86621
1026.99	8.23242
1029.88	24.9131
1032.77	23.4111
1035.67	40.9082
1038.56	69.29
1041.45	154.459
1044.34	172.057
1047.24	90.5137
1050.13	67.3106
1053.02	45.2549
1055.91	46.7803
1058.81	36.7637
1061.7	32.6963
1064.59	15.0742
1067.48	11
1070.38	18.2725
1073.27	12.5
1076.16	10.4248
1079.06	11.1396
1081.95	1.80859
1084.84	12.3037
1087.73	17.9521
1090.63	26.2354
1093.52	21.041
1096.41	16.0918
1099.31	16.1885
1102.2	1.56738
1105.09	15.0156
1107.98	2.85547
1110.88	5.67285
1113.77	10.1765
1116.66	7.22363
1119.55	5.02637
1122.45	18.4346
1125.34	8.37793
1128.23	17.6982
1131.12	13.5049
1134.02	37.1397
1136.91	17.8037
1139.8	54.166
1142.69	38.748
1145.59	38.1377
1148.48	36.957
1151.37	46.3945
1154.27	56.8965
1157.16	56.2266
1160.05	50.4902
1162.94	49.041
1165.84	56.9424
1168.73	56.4277
1171.62	79.8603
1174.52	91.0439
1177.41	96.5117
1180.3	81.7334
1183.19	79.9678
1186.09	69.4062
1188.98	71.2842
1191.87	52.9688
1194.76	71.0215
1197.66	79.6465
1200.55	78.6904
1203.44	53.1348
1206.34	45.2578
1209.23	53.7725
1212.12	61.9111
1215.01	64.6797
1217.91	52.334
1220.8	73.6631
1223.69	76.3428
1226.58	89.8906
1229.48	75.624
1232.37	95.1309
1235.26	102.371
1238.15	105.769
1241.05	79.4394
1243.94	73.4365
1246.83	69.6211
1249.72	85.8262
1252.62	64.2647
1255.51	73.5342
1258.4	45.6035
1261.3	6.18262
1264.19	14.1162
1267.08	2.78711
1269.97	9.02832
1272.87	30.001
1275.76	24.1201
1278.65	13.2285
1281.55	16.2109
