Measurement: Raman, 785 nm, unoriented, Raman Data Processed
Mineral: Wollastonite
Rruff sample: R040008
Ideal chemistry: CaSiO_3_
Locality: Lake Baikal, Siberia, Russia
Source: University of Arizona Mineral Museum
Description: Colorless parallel acicular crystals
Measured chemistry: Ca_1.00_Si_1.00_O_3_; trace amounts of Fe and Mn
Raman shift (cm-1)	intensity
171.723	0
174.615	320.648
177.508	707.993
180.401	9.57227
183.293	58.8765
186.186	420.163
189.079	898.077
191.971	1410.85
194.864	1199.18
197.757	468.635
200.65	140.39
203.542	22.2144
206.435	63.2998
209.328	60.5889
212.22	218.455
215.113	409.836
218.006	381.962
220.898	487.082
223.791	773.056
226.684	1229.15
229.577	1528.04
232.469	1558.25
235.362	1820.27
238.255	1928.8
241.147	1502.26
244.04	1050.45
246.933	806.669
249.825	583.614
252.718	563.385
255.611	690.846
258.503	659.701
261.396	400.983
264.289	149.476
267.181	85.4644
270.074	27.5288
272.967	0.507813
275.86	1.18262
278.752	85.6968
281.645	150.56
284.538	45.9297
287.431	70.8071
290.323	29.98
293.216	59.6011
296.109	259.49
299.001	541.557
301.894	741.823
304.787	956.215
307.679	885.044
310.572	1067.07
313.465	1844.84
316.358	3205.18
319.25	4983.64
322.143	5735.53
325.036	4534.98
327.928	4267.1
330.821	5802.19
333.714	8718.23
336.606	11366.3
339.499	9964.21
342.392	7121.29
345.284	4890.43
348.177	2605.06
351.07	1399.1
353.963	898.568
356.855	668.661
359.748	595.997
362.641	582.641
365.533	594.468
368.426	477.322
371.319	345.334
374.211	240.708
377.104	82.2275
379.997	19.6939
382.89	55.4761
385.782	42.4775
388.675	234.708
391.568	302.587
394.46	362.451
397.353	784.993
400.246	1548.75
403.138	2401.18
406.031	2607.62
408.924	1872
411.817	1199.12
414.709	695.518
417.602	410.393
420.495	121.801
423.387	4.35986
426.28	9.81592
429.173	37.1084
432.065	96.7954
434.958	182.565
437.851	292.588
440.744	397.106
443.636	411.13
446.529	381.239
449.422	320.519
452.314	330.093
455.207	340.728
458.1	352.625
460.992	441.433
463.885	706.197
466.778	1075.6
469.671	878.31
472.563	192.241
475.456	0.499023
478.349	58.8408
481.241	13.9106
484.134	87.3804
487.027	137.789
489.919	344.315
492.812	605.641
495.705	837.594
498.598	1070.96
501.49	1283.71
504.383	1654.84
507.276	1989.97
510.168	1645.08
513.061	1037.99
515.954	645.215
518.846	381.51
521.739	174.656
524.632	126.259
527.524	68.0137
530.417	57.6079
533.31	6.04053
536.203	15.4033
539.095	34.4956
541.988	45.9902
544.881	19.0889
547.773	10.4863
550.666	18.6855
553.559	1.35205
556.451	64.8428
559.344	57.751
562.237	104.309
565.13	142.614
568.022	326.103
570.915	524.185
573.808	905.836
576.7	1467.37
579.593	2125.52
582.486	2362.16
585.378	1666.53
588.271	1005.36
591.164	709.367
594.057	493.139
596.949	456.471
599.842	349.753
602.735	360.352
605.627	336.31
608.52	458.185
611.413	505.114
614.305	740.036
617.198	965.832
620.091	1338.24
622.984	1919.26
625.876	3086.96
628.769	5423.3
631.662	9119.8
634.554	13864.4
637.447	16573.9
640.34	11464.7
643.232	5384.79
646.125	2532.16
649.018	1354.23
651.911	736.233
654.803	406.693
657.696	249.184
660.589	115.564
663.481	43.7109
666.374	2.76611
669.267	26.1616
672.159	16.6826
675.052	60.4744
677.945	228.702
680.838	370.29
683.73	572.994
686.623	855.132
689.516	1508.62
692.408	1260.71
695.301	853.365
698.194	538.981
701.086	371.912
703.979	277.988
706.872	264.165
709.765	290.256
712.657	169.952
715.55	91.947
718.443	68.5344
721.335	56.2136
724.228	19.7036
727.121	14.5002
730.013	19.8875
732.906	26.8625
735.799	19.7124
738.692	21.3928
741.584	41.344
744.477	26.2752
747.37	60.2815
750.263	8.14111
753.155	67.1929
756.048	122.472
758.941	136.659
761.833	143.473
764.726	157.301
767.619	156.891
770.511	120.136
773.404	100.398
776.297	151.402
779.19	104.01
782.082	131.646
784.975	167.265
787.868	125.92
790.76	153.447
793.653	142.309
796.546	157.885
799.438	167.687
802.331	201.037
805.224	214.673
808.117	195.249
811.009	209.983
813.902	141.603
816.795	145.667
819.687	187.617
822.58	135.162
825.473	156.957
828.365	134.018
831.258	160.719
834.151	150.407
837.043	54.4773
839.936	87.4304
842.829	72.5205
845.721	31.4683
848.614	66.7822
851.507	18.9209
854.4	33.1435
857.292	19.0102
860.185	14.9219
863.078	20.6594
865.97	55.3528
868.863	64.7515
871.756	53.9819
874.648	110.376
877.541	114.093
880.434	153.796
883.327	181.616
886.219	312.738
889.112	446.961
892.005	446.694
894.897	248.496
897.79	120.493
900.683	84.301
903.576	83.7742
906.468	78.2607
909.361	73.0713
912.254	40.5747
915.146	19.6091
918.039	16.4468
920.932	22.0491
923.824	19.6419
926.717	38.814
929.61	10.9556
932.503	19.5972
935.395	13.739
938.288	7.71582
941.181	21.8472
944.073	2.07129
946.966	82.2886
949.859	195.494
952.751	405.325
955.644	726.353
958.537	1375.14
961.43	2959.67
964.322	7149.75
967.215	15971.4
970.108	27247.6
973	19458.7
975.893	6850.3
978.786	2940.83
981.678	1608.44
984.571	1088.47
987.464	922.837
990.357	1004.07
993.249	1450.55
996.142	2056.1
999.035	1937.33
1001.93	1047.78
1004.82	542.378
1007.71	511.105
1010.61	718.306
1013.5	1106.45
1016.39	1657.81
1019.28	2217.84
1022.18	2170.85
1025.07	1387.71
1027.96	1102.26
1030.85	1337.5
1033.75	1617.87
1036.64	2097.37
1039.53	4261.01
1042.42	8139.78
1045.32	10811.5
1048.21	6415.76
1051.1	2946.94
1054	1732.29
1056.89	1323.76
1059.78	1245.92
1062.67	1046.69
1065.57	707.049
1068.46	491.191
1071.35	385.031
1074.24	315.511
1077.14	250.025
1080.03	173.606
1082.92	121.163
1085.82	75.6431
1088.71	34.4795
1091.6	35.1914
1094.49	67.2119
1097.39	112.665
1100.28	76.7266
1103.17	107.612
1106.06	80.8252
1108.96	3.80762
1111.85	16.667
1114.74	139.168
1117.63	347.33
1120.53	524.838
1123.42	925.889
1126.31	1323.65
1129.21	1823.25
1132.1	2428.36
1134.99	3105.26
1137.88	3912.91
1140.78	4693.97
1143.67	5341.79
1146.56	5617.57
1149.45	5616.27
1152.35	5376.97
1155.24	4884.53
1158.13	4327.45
1161.03	3891.58
1163.92	3457.07
1166.81	3150.72
1169.7	2774.64
1172.6	2477.18
1175.49	2139.35
1178.38	1835.54
1181.28	1315.88
1184.17	798.541
1187.06	331.876
1189.95	92.3291
1192.85	0
