Measurement: Raman, 532 nm, unoriented, Raman Data Processed
Mineral: Wollastonite
Rruff sample: R120122
Ideal chemistry: CaSiO_3_
Locality: Fuka mine, Bicchu-cho, Okayama Prefecture, Japan
Source: Marcus Origlieri
Description: Colorless platy, frozen in matrix, polytype 2M, associated with perovskite R120121, spurrite and gehlenite
Raman shift (cm-1)	intensity
204.588	0
207.48	9.68237
210.373	17.9684
213.266	15.8544
216.158	14.3285
219.051	1.61108
221.944	0.397339
224.836	0.252441
227.729	8.93396
230.622	6.58252
233.514	9.51074
236.407	6.94287
239.3	7.0791
242.193	10.3353
245.085	5.09668
247.978	5.47876
250.871	5.61731
253.763	5.34814
256.656	2.42127
259.549	2.63757
262.442	2.6665
265.334	1.80725
268.227	4.41174
271.12	4.26013
274.012	9.61499
276.905	12.9864
279.798	18.0245
282.69	17.3184
285.583	30.3201
288.476	41.8876
291.368	55.9467
294.261	77.6385
297.154	94.4259
300.047	98.5333
302.939	114.266
305.832	99.5626
308.725	59.3555
311.617	50.5803
314.51	54.7191
317.403	69.8345
320.296	66.4581
323.188	61.0079
326.081	61.5791
328.974	73.6655
331.866	91.6166
334.759	102.772
337.652	85.7687
340.544	63.941
343.437	47.4949
346.33	27.0564
349.223	11.092
352.115	5.26477
355.008	3.45044
357.901	0.565796
360.793	0.732666
363.686	3.83435
366.579	3.45691
369.471	0.583618
372.364	4.58789
375.257	4.82849
378.149	18.684
381.042	20.0182
383.935	28.623
386.828	48.5857
389.72	71.0905
392.613	102.066
395.506	145.496
398.398	196.06
401.291	239.549
404.184	300.692
407.077	385.759
409.969	505.487
412.862	539.296
415.755	359.015
418.647	175.421
421.54	93.0881
424.433	50.501
427.325	23.9282
430.218	11.7933
433.111	13.8998
436.003	4.52466
438.896	5.75464
441.789	11.2107
444.682	6.48462
447.574	10.8498
450.467	10.2671
453.36	9.81775
456.252	5.10388
459.145	5.98279
462.038	10.5974
464.93	19.9995
467.823	28.7133
470.716	24.9542
473.609	35.1533
476.501	47.0873
479.394	69.9463
482.287	94.0493
485.179	107.87
488.072	79.4772
490.965	37.6909
493.858	24.183
496.75	18.03
499.643	16.0227
502.536	19.1444
505.428	16.0585
508.321	15.6721
511.214	11.0045
514.106	7.52393
516.999	0.466187
519.892	2.89136
522.784	2.1355
525.677	1.74243
528.57	0.952271
531.463	0.435059
534.355	3.9397
537.248	11.7843
540.141	11.804
543.033	7.22266
545.926	10.679
548.819	14.6527
551.712	7.07068
554.604	6.88013
557.497	5.70935
560.39	1.85779
563.282	1.84863
566.175	4.64612
569.068	5.28589
571.96	9.24963
574.853	0.329346
577.746	6.10522
580.639	7.65784
583.531	5.91565
586.424	6.43677
589.317	2.82288
592.209	1.27783
595.102	2.77978
597.995	7.2384
600.888	7.10632
603.78	13.8632
606.673	18.6218
609.566	30.2211
612.458	40.118
615.351	60.1489
618.244	100.632
621.136	167.497
624.029	248.625
626.922	350.902
629.814	512.548
632.707	736.739
635.6	897.028
638.493	671.8
641.385	315.749
644.278	153.818
647.171	95.8378
650.063	83.819
652.956	81.1359
655.849	79.8284
658.741	56.4407
661.634	34.7588
664.527	26.5906
667.42	23.8114
670.312	28.4203
673.205	24.5326
676.098	19.7632
678.99	14.7683
681.883	7.44214
684.776	9.44678
687.668	15.769
690.561	24.03
693.454	18.8721
696.347	9.08557
699.239	5.06189
702.132	0.802002
705.025	1.47705
707.917	1.49426
710.81	0.961182
713.703	4.23596
716.596	2.05225
719.488	2.16931
722.381	0.792725
725.274	3.58813
728.166	4.38647
731.059	0.968628
733.952	1.69226
736.844	3.29675
739.737	7.75928
742.63	8.47925
745.523	14.72
748.415	10.0857
751.308	5.4104
754.201	1.21606
757.093	5.573
759.986	2.53589
762.879	6.54785
765.771	8.26953
768.664	10.845
771.557	6.86279
774.449	14.7661
777.342	10.762
780.235	8.68213
783.128	1.60962
786.02	5.57007
788.913	7.70874
791.806	8.11499
794.698	11.8206
797.591	6.52686
800.484	4.27734
803.376	0.967773
806.269	3.82642
809.162	8.55908
812.055	3.59717
814.947	0.776611
817.84	10.1355
820.733	9.5083
823.625	19.8748
826.518	12.0503
829.411	12.0027
832.303	13.956
835.196	18.1665
838.089	12.8669
840.982	12.0342
843.874	9.92285
846.767	12.471
849.66	7.77295
852.552	1.17627
855.445	1.63403
858.338	0.945557
861.231	4.04321
864.123	1.67627
867.016	4.96753
869.909	2.07568
872.801	10.3108
875.694	20.3408
878.587	40.4436
881.479	56.7341
884.372	100.059
887.265	164.408
890.158	218.667
893.05	162.414
895.943	73.7734
898.836	31.2195
901.728	18.5647
904.621	9.73145
907.514	2.53687
910.406	0.80957
913.299	1.34888
916.192	2.12793
919.085	0.954834
921.977	2.2229
924.87	3.69824
927.763	4.23731
930.655	1.02319
933.548	2.09277
936.441	6.23779
939.333	5.80151
942.226	2.14575
945.119	15.9136
948.011	26.8586
950.904	44.9836
953.797	84.6392
956.69	206.997
959.582	381.822
962.475	606.377
965.368	1021.65
968.26	1717.4
971.153	1594.85
974.046	606.438
976.938	267.599
979.831	152.956
982.724	123.605
985.617	113.924
988.509	80.5608
991.402	49.7805
994.295	41.144
997.187	35.1687
1000.08	23.3037
1002.97	15.5859
1005.87	16.1267
1008.76	25.2905
1011.65	28.2939
1014.54	34.5312
1017.44	45.8662
1020.33	34.7952
1023.22	14.3701
1026.11	15.1316
1029.01	13.1316
1031.9	13.4956
1034.79	16.939
1037.68	21.0354
1040.58	37.7966
1043.47	63.2678
1046.36	58.8176
1049.26	30.0925
1052.15	18.4836
1055.04	7.60547
1057.93	6.49756
1060.83	3.46313
1063.72	1.55713
1066.61	3.16992
1069.51	0.933594
1072.4	1.71167
1075.29	2.17725
1078.18	1.1333
1081.08	6.40698
1083.97	10.0335
1086.86	7.94409
1089.75	8.02832
1092.65	7.08838
1095.54	6.61206
1098.43	9.02466
1101.33	10.873
1104.22	5.76196
1107.11	4.03394
1110	2.78589
1112.89	8.0708
1115.79	11.2241
1118.68	11.083
1121.57	18.3403
1124.47	13.1885
1127.36	10.3498
1130.25	7.23755
1133.14	16.9763
1136.04	20.6416
1138.93	9.61328
1141.82	8.44604
1144.71	5.89307
1147.61	7.61133
1150.5	11.346
1153.39	9.40356
1156.29	2.46948
1159.18	2.01807
1162.07	0.712402
1164.96	1.0769
1167.86	3.97949
1170.75	5.85791
1173.64	4.8291
1176.54	13.0205
1179.43	9.20654
1182.32	14.2812
1185.21	7.82202
1188.11	6.09839
1191	3.72534
1193.89	4.36499
1196.78	10.7644
1199.68	8.48657
1202.57	9.71191
1205.46	11.1692
1208.35	15.0544
1211.25	18.3745
1214.14	14.4761
1217.03	7.87476
1219.92	4.91553
1222.82	7.91577
1225.71	9.83862
1228.6	5.2605
1231.5	10.7371
1234.39	4.48682
1237.28	7.79443
1240.17	4.46606
1243.07	4.54834
1245.96	6.7312
1248.85	9.41357
1251.74	2.2395
1254.64	3.68921
1257.53	15.3342
1260.42	15.9165
1263.32	14.0024
1266.21	12.2517
1269.1	11.5183
1271.99	13.9226
1274.89	14.5054
1277.78	1.26123
1280.67	9.80591
1283.57	11.2915
1286.46	7.48071
1289.35	3.59302
1292.24	4.47729
1295.13	14.2556
1298.03	4.40161
1300.92	4.99683
