Measurement: Raman, 780 nm, unoriented, Raman Data Processed
Mineral: Wolsendorfite
Rruff sample: R090051
Ideal chemistry: Pb_7_(UO_2_)_14_O_19_(OH)_4_12H_2_O
Locality: Shinkolobwe mine, Katanga, Congo
Source: William W. Pinch
Description: A crust of orange blocky crystals.  Sample is from the specimen used in the Burns (1999) study. Associated with rutherfordine.
Raman shift (cm-1)	intensity
92.0254	0
95.4002	206.012
98.775	90.8672
102.15	934.85
105.525	2796.34
108.9	4433.84
112.274	6472.28
115.649	10628.9
119.024	16725.6
122.399	21531.9
125.773	19523.9
129.148	14019.1
132.523	10561.2
135.898	8040.78
139.273	6458.05
142.648	5877.97
146.022	6706.12
149.397	8590.15
152.772	9101.78
156.147	5650.25
159.522	2419.71
162.897	633.244
166.271	264.463
169.646	679.881
173.021	431.656
176.396	24.7441
179.771	339.371
183.145	1068.14
186.52	2187.4
189.895	3595.09
193.27	5608.14
196.645	8463.78
200.019	11976
203.394	15809.1
206.769	19642.2
210.144	22945.4
213.519	25212.2
216.893	25050.8
220.268	21934.3
223.643	17137.8
227.018	12547.5
230.393	9614.29
233.768	8717.83
237.142	8998.79
240.517	9976.82
243.892	10824.8
247.267	11556.4
250.642	11584.4
254.017	10684.2
257.391	9556.93
260.766	8286.74
264.141	6348.84
267.516	4344.23
270.891	2952.32
274.265	1901.32
277.64	1282.47
281.015	1125.14
284.39	967.945
287.765	557.457
291.139	201.295
294.514	250.394
297.889	259.324
301.264	192.197
304.639	1039.44
308.014	2347.84
311.388	3905.4
314.763	5442.2
318.138	6759.63
321.513	7417.36
324.888	8384.82
328.262	10340
331.637	13241.3
335.012	16920.5
338.387	21371.7
341.762	24874.5
345.137	26922.7
348.511	26414.9
351.886	23185
355.261	18929.5
358.636	15056.4
362.01	11866.9
365.385	8837.64
368.76	6094.04
372.135	4037.28
375.51	2410.74
378.885	1280.84
382.259	400.474
385.634	254.21
389.009	610.798
392.384	767.028
395.759	520.74
399.134	114.438
402.508	558.708
405.883	1513.92
409.258	2552.65
412.633	3627.2
416.008	4552.45
419.382	4988.41
422.757	5281.84
426.132	5196.07
429.507	4872.27
432.882	4442.18
436.257	3912.15
439.631	3583.88
443.006	3358.08
446.381	3322.06
449.756	3651.98
453.13	4491.82
456.505	5935.98
459.88	8016.2
463.255	10548.7
466.63	12873.7
470.005	14756.2
473.379	15165.9
476.754	13717.2
480.129	11393.3
483.504	9785.69
486.879	9071.08
490.253	9252.08
493.628	10048
497.003	11591.8
500.378	13274.2
503.753	15368.6
507.128	17180.5
510.502	18686.3
513.877	19062.5
517.252	18407
520.627	16340
524.002	13781.3
527.376	10870.7
530.751	8277.23
534.126	6092.04
537.501	4399.05
540.876	3101.71
544.25	2076.96
547.625	1341.38
551	757.66
554.375	419.414
557.75	129.923
561.125	12.7759
564.499	140.744
567.874	197.101
571.249	237.269
574.624	208.341
577.999	181.459
581.374	128.625
584.748	68.5059
588.123	8.44482
591.498	41.3154
594.873	129.051
598.248	210.416
601.622	253.625
604.997	371.472
608.372	391.15
611.747	478.347
615.122	527.446
618.496	565.684
621.871	612.551
625.246	564.851
628.621	529.8
631.996	458.244
635.37	445.592
638.745	338.884
642.12	260.245
645.495	188.767
648.87	112.838
652.245	87.1313
655.619	15.4849
658.994	52.4756
662.369	72.5671
665.744	82.4233
669.119	99.8931
672.494	114.882
675.868	121.317
679.243	59.4741
682.618	39.6065
685.993	43.5059
689.368	149.651
692.742	301.296
696.117	472.059
699.492	778.711
702.867	1203.93
706.242	1614.3
709.616	2285.31
712.991	3110.14
716.366	4252.86
719.741	5762.82
723.116	7803.61
726.49	10610.1
729.865	14467.1
733.24	19998
736.615	27092.8
739.99	36867.5
743.365	48680.6
746.739	61741.4
750.114	73933.6
753.489	80376
756.864	79630.8
760.239	74475.9
763.614	69778.4
766.988	64992.8
770.363	58800.6
773.738	51105.9
777.113	42394.4
780.487	33993.9
783.862	26457.2
787.237	20713.5
790.612	16681.9
793.987	13856.4
797.362	10627.3
800.736	7318.75
804.111	4623.92
807.486	2915.23
810.861	1738.37
814.236	965.504
817.611	532.729
820.985	227.876
824.36	16.9468
827.735	130.097
831.11	171.133
834.485	204.292
837.859	173.929
841.234	149.583
844.609	78.7078
847.984	32.085
851.359	23.4554
854.734	111.979
858.108	163.894
861.483	249.422
864.858	320.572
868.233	403.33
871.607	455.492
874.982	565.946
878.357	625.229
881.732	736.771
885.107	930.405
888.482	865.153
891.856	660.123
895.231	638.495
898.606	574.941
901.981	529.756
905.356	504.697
908.731	459.631
912.105	410.551
915.48	393.271
918.855	377.406
922.23	355.356
925.605	308.328
928.979	297.054
932.354	290.236
935.729	281.419
939.104	247.59
942.479	233.316
945.854	212.742
949.228	198.908
952.603	187.658
955.978	160.756
959.353	136.902
962.727	116.945
966.102	101.604
969.477	70.0936
972.852	68.4482
976.227	53.4355
979.602	50.2386
982.976	28.8462
986.351	25.0623
989.726	27.8651
993.101	13.4533
996.476	1.13867
999.851	17.3172
1003.23	4.07196
1006.6	3.09869
1009.98	0.473083
1013.35	0.59021
1016.73	3.85687
1020.1	8.49768
1023.47	7.93896
1026.85	12.7826
1030.22	11.2579
1033.6	16.2521
1036.97	25.7769
1040.35	30.6257
1043.72	54.7524
1047.1	46.2806
1050.47	39.1879
1053.85	38.2284
1057.22	10.9123
1060.6	16.2577
1063.97	5.73383
1067.35	9.05725
1070.72	10.7021
1074.1	4.23083
1077.47	0.535339
1080.85	2.9032
1084.22	11.3508
1087.6	13.9802
1090.97	21.9648
1094.35	0.503845
1097.72	16.1702
1101.1	17.0814
1104.47	18.3965
1107.84	20.7269
1111.22	21.5537
1114.59	25.5004
1117.97	48.8494
1121.34	33.9028
1124.72	43.7482
1128.09	35.4712
1131.47	29.8564
1134.84	30.213
1138.22	28.1185
1141.59	38.8543
1144.97	35.9161
1148.34	47.3959
1151.72	52.1739
1155.09	38.8571
1158.47	5.96246
1161.84	26.0219
1165.22	31.1998
1168.59	30.3545
1171.97	2.32031
1175.34	16.47
1178.72	38.8009
1182.09	44.1541
1185.46	17.3549
1188.84	14.3621
1192.21	36.8614
1195.59	24.9723
1198.96	32.6273
1202.34	13.4076
1205.71	18.229
1209.09	7.70367
1212.46	32.8163
1215.84	12.1732
1219.21	24.5986
1222.59	14.6021
1225.96	15.1952
1229.34	10.7615
1232.71	13.4485
1236.09	18.563
1239.46	13.6163
1242.84	18.0699
1246.21	12.2068
1249.59	19.5198
1252.96	8.89905
1256.34	19.691
1259.71	7.38947
1263.09	25.6664
1266.46	6.27777
1269.84	0.999878
1273.21	19.3433
1276.59	18.1523
1279.96	4.74524
1283.34	5.65027
