Measurement: Raman, 780 nm, unoriented, Raman Data Processed
Mineral: Woodhouseite
Rruff sample: R060520
Ideal chemistry: CaAl_3_(SO_4_)(PO_4_)(OH)_6_
Locality: Champion mine, Mono County, California, USA
Source: Michael Scott
Description: Colorless cubes, with striations that display the rhombohedral symmetry
Measured chemistry: darker phase: (Ca_0.98_Sr_0.02_)_Σ=1_Al_3.00_[(P_0.53_S_0.47_)_Σ=1_O_4_]_2_((OH)_5.94_(H_2_O)_0.06_)_Σ=6_ ;  lighter phase: (Ca_0.94_Sr_0.06_)_Σ=1_Al_3.00_[(P_0.52_S_0.48_)O_4_]_2_((OH)_5.96_(H_2_O)_0.04_)_Σ=6
Raman shift (cm-1)	intensity
91.0778	0
94.4526	253.982
97.8274	99.0923
101.202	20.6609
104.577	8.00952
107.952	33.1043
111.327	28.0515
114.701	44.2375
118.076	53.3823
121.451	81.2974
124.826	233.868
128.201	222.735
131.576	213.475
134.95	217.129
138.325	235.282
141.7	312.17
145.075	333.93
148.45	32.5142
151.825	39.6348
155.199	57.5715
158.574	29.3547
161.949	55.6519
165.324	179.91
168.698	358.774
172.073	675.304
175.448	1169.12
178.823	1857.93
182.198	1935.76
185.573	1215.05
188.947	811.348
192.322	705.733
195.697	683.501
199.072	690.606
202.447	734.506
205.821	781.635
209.196	832.791
212.571	886.64
215.946	952.569
219.321	1051.84
222.696	1163.98
226.07	1311.76
229.445	1453.87
232.82	1623.46
236.195	1824.43
239.57	2071.9
242.945	2387.76
246.319	2625.68
249.694	2577.16
253.069	2231.72
256.444	1826.86
259.818	1449.62
263.193	1157.89
266.568	948.499
269.943	805.87
273.318	685.135
276.693	581.967
280.067	471.219
283.442	356.196
286.817	231.095
290.192	136.789
293.567	69.438
296.942	24.2131
300.316	4.50464
303.691	14.1992
307.066	25.575
310.441	25.4644
313.816	18.7651
317.19	20.1016
320.565	22.6314
323.94	24.5352
327.315	18.3701
330.69	16.8594
334.065	9.68921
337.439	21.8525
340.814	40.7685
344.189	65.3106
347.564	87.3662
350.938	118.833
354.313	157.542
357.688	210.178
361.063	271.858
364.438	307.831
367.813	287.231
371.187	205.017
374.562	109.658
377.937	60.3479
381.312	46.0984
384.687	56.6401
388.062	114.056
391.436	227.728
394.811	385.326
398.186	609.59
401.561	926.475
404.935	1324.69
408.31	1580.24
411.685	1580.98
415.06	1529.29
418.435	1686.21
421.81	2024.03
425.184	2413.95
428.559	2859.85
431.934	3336.48
435.309	3782.73
438.684	4178.3
442.058	4460.39
445.433	4584.38
448.808	4508.56
452.183	4212.28
455.558	3714.6
458.933	3112.03
462.307	2498.76
465.682	1978.94
469.057	1602.6
472.432	1323.41
475.807	1140.09
479.182	1045.66
482.556	976.621
485.931	834.599
489.306	542.844
492.681	256.587
496.055	97.0117
499.43	5.69336
502.805	51.3757
506.18	73.1514
509.555	65.4026
512.93	57.1619
516.304	20.4963
519.679	30.6357
523.054	99.2766
526.429	215.937
529.804	410.106
533.178	642.592
536.553	541.846
539.928	193.964
543.303	60.3142
546.678	46.9568
550.053	80.7856
553.427	134.472
556.802	192.878
560.177	266.785
563.552	335.543
566.927	435.065
570.302	560.266
573.676	721.739
577.051	927.074
580.426	1191.22
583.801	1483.35
587.176	1830.33
590.55	2178.11
593.925	2494.8
597.3	2819.78
600.675	3110.61
604.05	3384.23
607.424	3562.39
610.799	3620.09
614.174	3528.93
617.549	3278.51
620.924	2921.86
624.298	2501.39
627.673	2129.32
631.048	1818.27
634.423	1553.06
637.798	1251.55
641.173	964.598
644.547	727.613
647.922	567.609
651.297	461.776
654.672	365.048
658.047	244.581
661.421	133.578
664.796	63.5413
668.171	34.1234
671.546	0.325439
674.921	16.9382
678.295	26.6354
681.67	29.5325
685.045	20.2789
688.42	8.93689
691.795	4.76807
695.17	4.20178
698.544	7.4729
701.919	15.8571
705.294	18.6865
708.669	23.5704
712.044	26.4706
715.418	28.1505
718.793	32.6082
722.168	24.0132
725.543	23.2763
728.918	23.3817
732.293	21.4208
735.667	17.632
739.042	9.43823
742.417	2.08838
745.792	0.197021
749.167	4.03052
752.541	1.39978
755.916	4.2395
759.291	8.18213
762.666	7.05981
766.041	11.4393
769.415	21.7788
772.79	32.3329
776.165	36.9536
779.54	42.4824
782.915	50.0518
786.29	57.8015
789.664	62.8733
793.039	63.5591
796.414	65.796
799.789	68.5002
803.164	64.7035
806.538	68.7064
809.913	64.7334
813.288	65.4462
816.663	60.9668
820.038	62.592
823.413	57.8772
826.787	57.8501
830.162	54.4727
833.537	48.7871
836.912	47.831
840.287	45.42
843.661	41.5685
847.036	38.5459
850.411	30.9055
853.786	25.9248
857.161	27.2285
860.535	18.2983
863.91	17.2014
867.285	13.3629
870.66	13.0754
874.035	6.89893
877.409	7.60925
880.784	7.59558
884.159	10.917
887.534	10.5265
890.909	8.27271
894.284	6.63647
897.658	6.13562
901.033	6.65796
904.408	6.97436
907.783	8.63574
911.158	7.48254
914.533	7.13379
917.907	7.12683
921.282	8.7456
924.657	1.82873
928.032	1.40881
931.407	4.15222
934.781	4.7088
938.156	3.40845
941.531	7.64148
944.906	2.52173
948.281	8.18823
951.655	18.7715
955.03	42.72
958.405	71.3536
961.78	108.031
965.155	158.457
968.529	208.921
971.904	253.569
975.279	289.827
978.654	334.224
982.029	397.022
985.404	468.541
988.778	494.795
992.153	462.72
995.528	422.792
998.903	420.092
1002.28	449.775
1005.65	468.817
1009.03	450.229
1012.4	438.014
1015.78	532.738
1019.15	829.483
1022.53	1507.13
1025.9	2651.15
1029.28	3297.23
1032.65	2440.49
1036.03	1324.78
1039.4	609.469
1042.78	274.925
1046.15	126.758
1049.53	55.668
1052.9	16.6717
1056.28	2.16907
1059.65	9.21985
1063.02	12.5874
1066.4	8.08582
1069.77	4.73999
1073.15	35.6506
1076.52	67.359
1079.9	93.3025
1083.27	113.302
1086.65	141.347
1090.02	166.85
1093.4	172.517
1096.77	168.013
1100.15	154.96
1103.52	144.22
1106.9	123.906
1110.27	109.173
1113.65	83.4177
1117.02	70.1676
1120.4	53.3227
1123.77	37.373
1127.15	25.1907
1130.52	23.2887
1133.9	16.2065
1137.27	17.9704
1140.64	21.1428
1144.02	24.4734
1147.39	31.2183
1150.77	35.2342
1154.14	42.3572
1157.52	52.5427
1160.89	59.0723
1164.27	75.4931
1167.64	85.9255
1171.02	100.124
1174.39	104.356
1177.77	105.179
1181.14	102.173
1184.52	87.1814
1187.89	65.4354
1191.27	42.1524
1194.64	25.2725
1198.02	13.0624
1201.39	4.82947
1204.77	1.43262
1208.14	4.04944
1211.52	3.19879
1214.89	1.01202
1218.27	3.21674
1221.64	1.60303
1225.02	2.67297
1228.39	0.638245
1231.77	4.98132
1235.14	10.5143
1238.52	12.3291
1241.89	10.7655
1245.26	15.9898
1248.64	12.8119
1252.01	9.01855
1255.39	8.36475
1258.76	5.26489
1262.14	3.72992
1265.51	6.69165
1268.89	1.34735
1272.26	3.23688
1275.64	3.42444
1279.01	2.97858
1282.39	4.88562
