Measurement: Raman, 532 nm, unoriented, Raman Data Processed
Mineral: Woodhouseite
Rruff sample: R060520
Ideal chemistry: CaAl_3_(SO_4_)(PO_4_)(OH)_6_
Locality: Champion mine, Mono County, California, USA
Source: Michael Scott
Description: Colorless cubes, with striations that display the rhombohedral symmetry
Measured chemistry: darker phase: (Ca_0.98_Sr_0.02_)_Σ=1_Al_3.00_[(P_0.53_S_0.47_)_Σ=1_O_4_]_2_((OH)_5.94_(H_2_O)_0.06_)_Σ=6_ ;  lighter phase: (Ca_0.94_Sr_0.06_)_Σ=1_Al_3.00_[(P_0.52_S_0.48_)O_4_]_2_((OH)_5.96_(H_2_O)_0.04_)_Σ=6
Raman shift (cm-1)	intensity
157.681	0
160.574	20.092
163.466	398.611
166.359	979.691
169.252	2065.45
172.144	4058.34
175.037	6846.51
177.93	9332.14
180.822	8212.65
183.715	4613.3
186.608	2295.57
189.501	1526.61
192.393	1014.33
195.286	570.588
198.179	469.275
201.071	98.994
203.964	21.414
206.857	48.008
209.749	41.869
212.642	77.365
215.535	213.438
218.428	548.023
221.32	914.84
224.213	1435.99
227.106	1630.25
229.998	2111.64
232.891	2971.22
235.784	4028.37
238.676	5485.01
241.569	7440.62
244.462	9115.81
247.355	9572.02
250.247	8778.49
253.14	7335.75
256.033	5708.09
258.925	4359.83
261.818	3593.97
264.711	3297.62
267.603	3003.42
270.496	2802.8
273.389	2186.55
276.282	1982.04
279.174	1776.43
282.067	1258.25
284.96	909.562
287.852	446.199
290.745	247.098
293.638	28.699
296.53	30.816
299.423	114.41
302.316	106.648
305.209	62.406
308.101	170.861
310.994	196.486
313.887	112.564
316.779	2.889
319.672	41.123
322.565	15.881
325.457	28.41
328.35	191.934
331.243	224.373
334.136	325.223
337.028	418.295
339.921	607.504
342.814	710.625
345.706	549.744
348.599	633.377
351.492	1057.59
354.384	1294
357.277	1276.37
360.17	1422.93
363.063	1415.76
365.955	1364.31
368.848	1093.85
371.741	970.252
374.633	726.467
377.526	652.453
380.419	447.365
383.311	376.162
386.204	503.299
389.097	761.184
391.99	1186.28
394.882	1637.92
397.775	2395.59
400.668	3292.66
403.56	4535.06
406.453	4942.56
409.346	3966.39
412.238	2254.09
415.131	1274.57
418.024	786.936
420.917	423.256
423.809	336.633
426.702	104.385
429.595	42.414
432.487	66.357
435.38	13.322
438.273	70.764
441.165	35.555
444.058	204.617
446.951	311.906
449.844	409.326
452.736	420.682
455.629	528.877
458.522	765.197
461.414	845.012
464.307	1228.35
467.2	1647.79
470.093	2294.77
472.985	2943.17
475.878	3462.64
478.771	3926.06
481.663	4043.68
484.556	3839.65
487.449	3038.11
490.341	1861.91
493.234	1019.31
496.127	599.355
499.02	248.484
501.912	41.887
504.805	143.164
507.698	68.074
510.59	11.734
513.483	236.871
516.376	509.504
519.268	784.16
522.161	1580.77
525.054	2227.29
527.947	3429.57
530.839	4992.27
533.732	5038.47
536.625	2321.59
539.517	612.16
542.41	270.281
545.303	23.133
548.195	62.199
551.088	11.078
553.981	52.422
556.874	51.246
559.766	42.527
562.659	163.609
565.552	301.023
568.444	644.344
571.337	824.207
574.23	1278.89
577.122	1676.06
580.015	2335.59
582.908	3240.18
585.801	3889.43
588.693	4527.39
591.586	4552.93
594.479	3943.97
597.371	3344.39
600.264	2877.5
603.157	3030.86
606.049	3359.04
608.942	4575.91
611.835	4901.61
614.728	5372.09
617.62	5855.99
620.513	6090.58
623.406	6262.23
626.298	6650.56
629.191	7206.79
632.084	7600.93
634.977	7457.39
637.869	6726.28
640.762	5659.8
643.655	5195.57
646.547	5058.08
649.44	5286.63
652.333	5552.43
655.225	4116.02
658.118	2952.42
661.011	2027.81
663.904	1308.63
666.796	1026.64
669.689	811.586
672.582	352.879
675.474	132.43
678.367	3.324
681.26	24.488
684.153	36.305
687.045	86.051
689.938	45.477
692.831	116.32
695.723	149.203
698.616	136.844
701.509	40.914
704.401	83.855
707.294	3.227
710.187	70.453
713.08	187.402
715.972	235.762
718.865	244.285
721.758	321.922
724.65	408.473
727.543	292.836
730.436	241.711
733.328	206.238
736.221	281.238
739.114	159.98
742.006	216.891
744.899	241.953
747.792	381.613
750.685	406.59
753.577	207.398
756.47	261.105
759.363	162.359
762.255	16.824
765.148	18.633
768.041	52.141
770.933	49.426
773.826	187.059
776.719	53.883
779.612	7.711
782.504	9.77
785.397	85.289
788.29	65.879
791.182	59.074
794.075	66.758
796.968	206.617
799.86	165.238
802.753	100.195
805.646	43.055
808.539	5.078
811.431	292.594
814.324	186.621
817.217	82.91
820.109	92.254
823.002	101.973
825.895	99.215
828.787	122.289
831.68	235.754
834.573	191.426
837.466	170.766
840.358	130.672
843.251	171.609
846.144	131.676
849.036	105.691
851.929	151.129
854.822	41.551
857.714	66.605
860.607	264.633
863.5	368.637
866.393	240.781
869.285	120.848
872.178	38.125
875.071	109.086
877.963	151.375
880.856	270.332
883.749	227.75
886.641	331.32
889.534	372.688
892.427	426.086
895.32	662.398
898.212	715.707
901.105	431.734
903.998	376.145
906.89	257.707
909.783	294.613
912.676	47.594
915.568	103.902
918.461	28.289
921.354	82.254
924.247	136.223
927.139	290.414
930.032	283.422
932.925	102.809
935.817	33.441
938.71	27.984
941.603	20.793
944.495	53.406
947.388	33.137
950.281	14.594
953.174	195.137
956.066	910.746
958.959	802.789
961.852	1336.09
964.744	1789.88
967.637	2257.89
970.53	2468.38
973.422	2918.85
976.315	3351.4
979.208	3791.09
982.101	4378.15
984.993	4894.21
987.886	4851.39
990.779	4554.84
993.672	4236.23
996.564	4224.51
999.457	4297.52
1002.35	4563.9
1005.24	4536.11
1008.13	4336.25
1011.03	4329.15
1013.92	5481.29
1016.81	8807.21
1019.71	14524.2
1022.6	24218.5
1025.49	35012.2
1028.38	36536.4
1031.28	26137.5
1034.17	15554.7
1037.06	8298.03
1039.95	4648.17
1042.85	2461.03
1045.74	1299.63
1048.63	621.023
1051.53	214.418
1054.42	78.203
1057.31	118.77
1060.2	181.316
1063.1	166.43
1065.99	228.297
1068.88	41.516
1071.77	238.867
1074.67	566.457
1077.56	881.676
1080.45	1139.02
1083.35	1436.96
1086.24	1905.31
1089.13	2076.1
1092.02	2113.45
1094.92	2097
1097.81	2158.04
1100.7	2161.58
1103.59	1637.04
1106.49	1584.87
1109.38	1318.09
1112.27	641.09
1115.16	622.848
1118.06	470.996
1120.95	168
1123.84	0.367
1126.74	14.348
1129.63	74.336
1132.52	256.684
1135.41	198.945
1138.31	142.395
1141.2	313.145
1144.09	358.145
1146.98	403.961
1149.88	311.297
1152.77	627.434
1155.66	689.859
1158.56	926.867
1161.45	1002.63
1164.34	1008.43
1167.23	887.484
1170.13	851.25
1173.02	1017.9
1175.91	1286.19
1178.8	1165.74
1181.7	1113.06
1184.59	907.191
1187.48	619.188
1190.38	455.863
1193.27	217.82
1196.16	136.555
1199.05	31.703
1201.95	67.258
1204.84	113.27
1207.73	98.492
1210.62	194.887
1213.52	158.598
1216.41	238.934
1219.3	88.691
1222.19	136.438
1225.09	256.207
1227.98	284.035
1230.87	509.906
1233.77	653.066
1236.66	577.75
1239.55	682.004
1242.44	519.551
1245.34	431.934
1248.23	508.352
1251.12	662.066
1254.02	414.141
1256.91	429.887
1259.8	480.762
1262.69	153.836
1265.59	16.164
1268.48	26.223
1271.37	379.668
1274.26	731.574
1277.16	480.395
1280.05	86.559
