Measurement: Raman, 532 nm, unoriented, Raman Data Processed
Mineral: Wulfenite
Rruff sample: R050149
Ideal chemistry: PbMoO_4_
Locality: Chapacase mine, Sierra Cerrillias District, Tocopilla, Chile
Source: Jim McGlasson
Description: Orange thin tabular crystals
Raman shift (cm-1)	intensity
143.916	0
147.29	20.1838
150.665	55.1645
154.04	65.0309
157.415	79.0154
160.79	72.1652
164.164	79.7147
167.539	88.9375
170.914	109.271
174.289	140.329
177.664	152.76
181.038	141.735
184.413	121.864
187.788	91.4165
191.163	52.5569
194.538	23.2629
197.913	4.67236
201.287	21.2784
204.662	9.17529
208.037	11.7352
211.412	1.55823
214.787	4.79541
218.161	7.46155
221.536	1.12207
224.911	17.7229
228.286	24.3247
231.661	30.2185
235.036	40.2618
238.41	44.2383
241.785	46.9647
245.16	56.1526
248.535	54.7908
251.91	60.3474
255.284	67.7575
258.659	61.561
262.034	63.3688
265.409	68.4309
268.784	83.2562
272.159	107.715
275.533	141.332
278.908	191.092
282.283	262.094
285.658	357.552
289.033	490.181
292.407	667.555
295.782	892.968
299.157	1161.4
302.532	1462.49
305.907	1780.9
309.281	2086.9
312.656	2287.33
316.031	2342.66
319.406	2113.53
322.781	1748.19
326.156	1335.26
329.53	1003.22
332.905	761.746
336.28	598.338
339.655	503.577
343.03	433.814
346.404	398.263
349.779	358.583
353.154	301.631
356.529	225.817
359.904	158.505
363.279	103.443
366.653	68.718
370.028	41.8137
373.403	22.3801
376.778	11.6996
380.153	7.5835
383.527	0.44812
386.902	10.404
390.277	11.86
393.652	10.3778
397.027	9.30347
400.402	6.60339
403.776	3.10059
407.151	0.309937
410.526	2.82275
413.901	8.40301
417.276	6.23602
420.65	9.43689
424.025	7.89526
427.4	6.76245
430.775	12.3614
434.15	16.7191
437.524	13.3239
440.899	15.458
444.274	11.3013
447.649	10.2596
451.024	13.0102
454.399	12.8042
457.773	10.8701
461.148	5.89886
464.523	8.33691
467.898	16.1517
471.273	10.1202
474.647	9.96802
478.022	5.85944
481.397	6.96393
484.772	4.85297
488.147	0.441406
491.522	1.24719
494.896	1.83838
498.271	3.58563
501.646	0.928162
505.021	2.54443
508.396	0.840942
511.771	1.17865
515.145	1.00897
518.52	3.22485
521.895	0.648621
525.27	1.38507
528.644	1.42779
532.019	2.77783
535.394	7.56183
538.769	12.4617
542.144	6.26642
545.519	7.43793
548.893	6.19293
552.268	6.93939
555.643	12.4509
559.018	25.9598
562.393	20.9127
565.768	21.7138
569.142	24.3155
572.517	26.2445
575.892	29.7018
579.267	32.2289
582.642	37.0413
586.016	40.4725
589.391	45.9039
592.766	53.0965
596.141	59.4276
599.516	62.4641
602.89	68.643
606.265	71.8648
609.64	77.6804
613.015	79.4023
616.39	85.5777
619.765	88.3348
623.139	90.2759
626.514	93.7776
629.889	95.0568
633.264	100.731
636.639	104.885
640.014	108.323
643.388	124.266
646.763	135.466
650.138	147.776
653.513	157.007
656.888	160.661
660.262	154.184
663.637	146.909
667.012	138.766
670.387	114.834
673.762	109.936
677.136	99.2371
680.511	98.8352
683.886	95.0978
687.261	48.2306
690.636	32.3667
694.011	18.2224
697.385	3.74451
700.76	7.26953
704.135	18.3557
707.51	27.5541
710.885	21.6848
714.259	10.4736
717.634	8.63379
721.009	44.0463
724.384	95.6193
727.759	138.75
731.134	189.198
734.508	229.131
737.883	234.224
741.258	205.737
744.633	150.984
748.008	103.343
751.382	60.3502
754.757	26.4895
758.132	8.26929
761.507	5.60693
764.882	12.031
768.256	25.2651
771.631	7.84473
775.006	31.729
778.381	114.383
781.756	225.008
785.131	404.22
788.505	640.428
791.88	934.935
795.255	1305.84
798.63	1748.27
802.005	2221.48
805.38	2676.86
808.754	3060.72
812.129	3301.22
815.504	3289.45
818.879	3082.22
822.254	2719.41
825.628	2299.83
829.003	1893.15
832.378	1557.88
835.753	1329.6
839.128	1203.06
842.502	1195.46
845.877	1313.96
849.252	1604.06
852.627	2094.98
856.002	2780.67
859.376	3580.32
862.751	4406.52
866.126	4952.31
869.501	4853.35
872.876	4005.09
876.251	2869.64
879.625	1905.42
883	1229.14
886.375	785.896
889.75	484.768
893.125	284.816
896.5	157.515
899.874	78.163
903.249	21.9364
906.624	6.35254
909.999	24.9459
913.374	30.4889
916.748	29.2113
920.123	24.2462
923.498	18.3936
926.873	3.1344
930.248	11.5984
933.622	26.1919
936.997	40.1881
940.372	58.3781
943.747	75.4684
947.122	86.5299
950.497	98.5751
953.871	114.533
957.246	126.274
960.621	133.045
963.996	142.073
967.371	146.172
970.745	152.853
974.12	143.364
977.495	130.633
980.87	120.162
984.245	112.192
987.62	102.526
990.994	96.1235
994.369	95.0897
997.744	88.5396
1001.12	89.3571
1004.49	87.1722
1007.87	75.0437
1011.24	71.1695
1014.62	71.0154
1017.99	68.2393
1021.37	62.2117
1024.74	57.1191
1028.12	46.8482
1031.49	45.3033
1034.87	39.1738
1038.24	37.8392
1041.62	30.9506
1044.99	25.9304
1048.37	24.6034
1051.74	19.9317
1055.12	18.4649
1058.49	15.7864
1061.87	10.702
1065.24	4.14282
1068.62	4.86572
1071.99	4.53918
1075.37	2.9751
1078.74	3.46997
1082.11	6.65002
1085.49	0.02533
1088.86	1.6488
1092.24	0.815002
1095.61	0.688477
1098.99	0.276123
1102.36	1.85986
1105.74	5.37097
1109.11	0.656433
1112.49	1.17365
1115.86	0.449219
1119.24	1.95825
1122.61	2.61804
1125.99	2.15216
1129.36	1.5943
1132.74	0.228088
1136.11	3.63666
1139.49	6.51739
1142.86	8.90381
1146.24	8.11719
1149.61	10.7031
1152.98	15.1554
1156.36	11.9135
1159.73	17.2169
1163.11	17.373
1166.48	23.329
1169.86	15.7007
1173.23	14.2739
1176.61	13.8338
1179.98	14.0102
1183.36	12.3195
1186.73	8.73029
1190.11	8.70435
1193.48	7.72534
1196.86	10.9789
1200.23	8.70514
1203.61	5.83575
1206.98	4.40668
1210.36	1.04639
1213.73	1.21985
1217.11	4.48358
1220.48	2.10925
1223.86	2.11993
1227.23	1.53503
1230.61	5.12402
1233.98	2.68024
1237.36	6.25232
1240.73	1.97321
1244.11	0.958069
1247.48	2.22046
1250.86	2.4231
1254.23	4.71765
1257.61	4.51959
1260.98	2.90625
1264.35	8.54388
1267.73	5.47064
1271.1	1.90051
1274.48	5.15735
1277.85	3.63904
1281.23	3.95496
1284.6	0.470459
1287.98	5.99896
1291.35	6.04468
1294.73	5.07098
1298.1	3.94373
1301.48	4.50617
1304.85	2.44232
