Measurement: Raman, 514 nm, unoriented, Raman Data Processed
Mineral: Wulfenite
Rruff sample: R050149
Ideal chemistry: PbMoO_4_
Locality: Chapacase mine, Sierra Cerrillias District, Tocopilla, Chile
Source: Jim McGlasson
Description: Orange thin tabular crystals
Raman shift (cm-1)	intensity
120.862	0
125.051	1.53021
129.239	12.9106
133.424	53.4298
137.607	68.3495
141.788	103.26
145.966	99.5265
150.143	153.366
154.317	215.783
158.489	281.867
162.658	353.013
166.826	363.477
170.991	307.405
175.154	280.06
179.315	301.156
183.474	381.081
187.63	423.461
191.785	372.83
195.937	284.246
200.087	141.711
204.234	92.2424
208.38	45.8635
212.523	0.597778
216.664	9.43445
220.803	11.6509
224.94	4.66956
229.074	9.62701
233.207	5.4375
237.337	1.49609
241.465	12.5382
245.591	28.5675
249.714	39.6106
253.836	59.6101
257.955	86.4929
262.072	96.2754
266.187	125.193
270.3	139.946
274.411	166.891
278.519	205.033
282.626	303.248
286.73	406.496
290.832	508.233
294.931	733.029
299.029	1019.03
303.125	1577.99
307.218	2647.93
311.309	4866.7
315.398	8248.48
319.485	8583.24
323.57	4979.96
327.653	2523.7
331.733	1474.58
335.811	917.135
339.888	654.317
343.962	601.384
348.034	649.27
352.103	655.242
356.171	601.011
360.237	461.757
364.3	318.617
368.361	218.981
372.42	180.398
376.477	140.857
380.532	149.193
384.585	100.58
388.636	96.938
392.684	78.9797
396.731	67.0978
400.775	49.2151
404.817	32.7484
408.857	52.0454
412.895	60.8402
416.931	54.4929
420.965	45.7223
424.996	46.4486
429.026	35.9467
433.053	51.4593
437.078	39.4999
441.102	39.0149
445.123	63.3904
449.142	61.1949
453.159	51.0731
457.174	40.2062
461.186	37.4483
465.197	42.9561
469.206	49.1419
473.212	48.5833
477.216	43.2012
481.219	43.4989
485.219	33.7804
489.217	34.5067
493.213	33.974
497.207	36.6745
501.199	44.7989
505.189	42.8057
509.177	22.6968
513.162	30.4696
517.146	30.1289
521.128	40.6752
525.107	39.1079
529.084	15.4135
533.06	24.5857
537.033	9.63806
541.004	12.5762
544.973	18.4041
548.941	0.129272
552.906	16.7534
556.869	16.2748
560.83	10.6864
564.789	2.13702
568.745	14.0092
572.7	0.942566
576.653	4.97446
580.604	6.68079
584.552	5.29193
588.499	4.61649
592.444	9.05151
596.386	7.94693
600.327	5.98755
604.265	19.0852
608.201	5.76959
612.136	8.68878
616.068	10.1706
619.999	15.9338
623.927	22.7164
627.853	10.647
631.777	11.5645
635.7	9.69388
639.62	8.94858
643.538	0.603577
647.454	8.11459
651.368	10.6486
655.281	13.7797
659.191	2.33518
663.099	16.7281
667.005	26.9744
670.909	54.4303
674.811	46.9034
678.711	28.4203
682.609	52.6796
686.505	62.0859
690.399	70.8826
694.291	70.7781
698.181	105.949
702.069	110.685
705.956	146.506
709.84	189.39
713.722	235.103
717.602	288.25
721.48	422.448
725.356	579.232
729.23	908.448
733.102	1459.73
736.972	2613.13
740.84	4280.91
744.707	4570.92
748.571	3044.14
752.433	1889.71
756.293	1427.86
760.151	1379.21
764.008	1602.27
767.862	1670.31
771.714	1247.64
775.565	1043.6
779.413	937.25
783.26	918.393
787.104	1014.47
790.946	1192.47
794.787	1474.71
798.626	1816.14
802.462	2476.86
806.297	3439.57
810.13	5063.55
813.96	6817.83
817.789	7054.23
821.616	5931.75
825.441	4794.38
829.264	3994.13
833.085	3641.99
836.904	3554.98
840.721	3579.1
844.536	3951.35
848.349	4575.72
852.16	5947.45
855.97	8309.42
859.777	13254.5
863.582	24304.6
867.386	46674.8
871.188	50524.1
874.987	26573.5
878.785	12593.1
882.581	6832.13
886.374	4213.25
890.166	2891.67
893.956	2118.49
897.744	1664.41
901.531	1309.01
905.315	1069.38
909.097	895.54
912.877	819.182
916.656	674.755
920.432	572.014
924.207	482.742
927.98	425.608
931.751	308.329
935.519	312.645
939.286	300.406
943.051	289.975
946.815	248.648
950.576	242.524
954.335	184.364
958.093	131.708
961.848	98.8076
965.602	92.8736
969.354	74.0105
973.104	87.2111
976.852	68.4788
980.598	63.8182
984.342	61.3923
988.084	41.8572
991.824	23.5382
995.563	22.1329
999.3	11.2062
1003.03	13.5009
1006.77	13.2377
1010.5	4.98584
1014.23	10.1991
1017.95	8.58612
1021.68	5.39044
1025.4	2.22412
1029.12	3.91913
1032.84	5.94745
1036.56	0.822388
1040.28	0.69751
1043.99	14.5639
1047.7	3.59509
1051.41	5.79981
1055.12	14.0527
1058.83	14.3552
1062.54	16.2982
1066.24	11.1031
1069.94	7.58472
1073.64	17.0803
1077.34	29.5388
1081.03	6.73621
1084.72	1.01862
1088.42	18.2209
1092.11	22.5957
1095.79	12.7464
1099.48	45.9055
1103.16	30.1242
1106.85	16.2703
1110.53	32.4076
1114.21	48.4998
1117.88	53.623
1121.56	72.8347
1125.23	40.1135
1128.9	46.0783
1132.57	47.3842
1136.24	26.5195
1139.91	66.999
1143.57	40.4175
1147.23	67.1422
1150.89	68.5298
1154.55	77.229
1158.21	63.5002
1161.86	92.5658
1165.52	77.2466
1169.17	91.925
1172.82	95.6356
1176.46	107.397
1180.11	69.3264
1183.75	96.8197
1187.4	65.2762
1191.04	80.5988
1194.67	59.2548
1198.31	64.7737
1201.95	68.2719
1205.58	41.5513
1209.21	58.318
1212.84	61.9571
1216.47	28.2149
1220.09	48.5509
1223.72	36.9772
1227.34	24.9466
1230.96	32.7059
1234.58	16.8409
1238.2	44.7994
1241.81	41.4291
1245.42	24.0497
1249.04	36.7366
1252.65	20.7384
1256.25	28.0172
1259.86	29.3831
1263.46	29.5904
1267.07	15.7591
1270.67	7.11591
1274.27	9.69122
1277.86	25.3182
1281.46	13.9217
1285.05	16.4981
1288.64	11.1074
1292.23	17.1995
1295.82	14.4331
1299.41	15.5815
1302.99	22.5875
1306.58	17.5176
1310.16	19.4232
1313.74	14.2601
1317.31	21.0193
1320.89	18.5888
1324.46	31.4113
1328.04	16.8146
1331.61	17.1473
1335.17	24.3975
1338.74	29.5812
1342.31	12.6665
1345.87	32.7052
1349.43	7.65979
1352.99	15.8325
1356.55	1.97058
1360.11	20.2218
1363.66	7.65149
1367.21	12.8894
1370.77	35.0667
1374.31	22.9921
1377.86	30.7955
1381.41	46.2858
1384.95	31.0334
1388.49	14.5234
1392.04	7.08942
1395.57	29.4102
1399.11	15.7838
1402.65	8.10901
1406.18	22.8785
1409.71	0.925842
1413.24	34.8866
1416.77	47.6001
1420.3	21.3018
1423.82	26.1632
1427.35	38.1136
1430.87	37.0393
1434.39	18.2401
1437.9	24.7566
1441.42	23.4699
1444.93	31.5061
1448.45	9.14606
1451.96	15.6161
1455.47	8.34967
1458.98	31.6475
1462.48	40.6054
1465.99	23.9199
1469.49	19.2851
1472.99	20.611
1476.49	31.3778
1479.99	40.6895
1483.48	14.5859
1486.97	13.2137
1490.47	0.607971
1493.96	20.9597
