Measurement: Raman, 532 nm, unoriented, Raman Data Processed
Mineral: Wulfenite
Rruff sample: R050501
Ideal chemistry: PbMoO_4_
Locality: Los Lamentos, Chihuahua, Mexico
Source: California Institute of Technology
Description: Orange tabular crystal
Measured chemistry: Pb_1.00_Mo_1.00_O_4_
Raman shift (cm-1)	intensity
111.394	0
114.769	1.72378
118.144	7.59155
121.519	20.9912
124.893	98.1767
128.268	205.393
131.643	315.684
135.018	379.26
138.393	496.589
141.767	667.969
145.142	867.148
148.517	1065.36
151.892	1306.14
155.267	1605.23
158.642	1950.36
162.016	2338.49
165.391	2609.97
168.766	2570.83
172.141	2059.06
175.516	1460.87
178.89	1080.51
182.265	947.141
185.64	953.794
189.015	991.883
192.39	961.011
195.764	741.874
199.139	476.302
202.514	299.095
205.889	183.921
209.264	113.205
212.638	76.7844
216.013	31.8069
219.388	22.8492
222.763	3.39893
226.138	9.83716
229.513	21.0214
232.887	21.4089
236.262	21.2678
239.637	13.4677
243.012	5.0033
246.387	7.39087
249.762	12.8738
253.136	30.8336
256.511	43.1172
259.886	68.4502
263.261	90.4335
266.636	112.121
270.01	153.526
273.385	184.955
276.76	251.76
280.135	346.957
283.51	460.39
286.885	631.969
290.259	928.97
293.634	1389.92
297.009	2197.25
300.384	3718.97
303.759	5888.76
307.133	8184.41
310.508	11317.3
313.883	16007.9
317.258	20083.8
320.633	16743.4
324.007	8724.79
327.382	4218.28
330.757	2342.2
334.132	1487.06
337.507	1099.34
340.882	950.53
344.256	1001.21
347.631	1290.43
351.006	1390.42
354.381	815.825
357.756	599.449
361.13	361.325
364.505	173.135
367.88	88.66
371.255	39.0267
374.63	18.6614
378.005	8.99133
381.379	1.37842
384.754	4.61108
388.129	2.72876
391.504	8.44678
394.879	9.32349
398.253	12.8932
401.628	3.2345
405.003	2.72485
408.378	7.71509
411.753	3.30261
415.128	23.8353
418.502	18.5149
421.877	22.7782
425.252	16.356
428.627	28.5971
432.002	29.007
435.377	27.9142
438.751	37.2789
442.126	35.1185
445.501	35.505
448.876	40.7882
452.25	45.0334
455.625	35.4049
459	29.9186
462.375	18.3506
465.75	31.7338
469.125	23.0576
472.5	19.1509
475.874	28.4111
479.249	18.4282
482.624	18.9439
485.999	21.282
489.373	11.8726
492.748	16.5056
496.123	11.9495
499.498	15.8799
502.873	6.99609
506.248	8.18896
509.622	2.20825
512.997	1.1449
516.372	6.15381
519.747	5.36829
523.122	6.54175
526.496	4.86157
529.871	1.05237
533.246	2.5813
536.621	27.7333
539.996	1.79419
543.371	2.35229
546.745	8.43274
550.12	2.40857
553.495	5.8667
556.87	4.4978
560.245	1.51257
563.62	2.82361
566.994	8.59448
570.369	10.0757
573.744	7.50366
577.119	0.819336
580.494	16.5957
583.868	6.61743
587.243	15.9038
590.618	9.14087
593.993	4.19617
597.368	5.49097
600.742	12.2604
604.117	12.5
607.492	12.9863
610.867	7.32727
614.242	8.51245
617.617	9.70764
620.991	20.8278
624.366	21.9365
627.741	22.3148
631.116	27.4617
634.491	33.4639
637.865	28.1483
641.24	29.8543
644.615	32.8097
647.99	36.8517
651.365	51.2972
654.74	60.6182
658.114	54.5596
661.489	56.7199
664.864	51.665
668.239	44.4694
671.614	44.4774
674.989	41.3192
678.363	36.853
681.738	32.4231
685.113	24.1176
688.488	15.7006
691.862	8.75354
695.237	2.59375
698.612	5.23022
701.987	4.81592
705.362	7.76147
708.737	12.66
712.111	10.1392
715.486	9.70752
718.861	51.4066
722.236	140.107
725.611	315.204
728.986	683.825
732.36	1319.6
735.735	2204.89
739.11	3577.48
742.485	4826.38
745.86	4260.71
749.234	2297.06
752.609	1347.39
755.984	1160.81
759.359	1386.25
762.734	1974.07
766.109	2516.4
769.483	2058.88
772.858	947.12
776.233	369.736
779.608	144.992
782.983	44.1446
786.357	2.87244
789.732	19.1283
793.107	27.2388
796.482	27.1876
799.857	2.00732
803.231	37.9605
806.606	105.836
809.981	223.069
813.356	345.174
816.731	468.816
820.106	519.669
823.48	617.716
826.855	718.262
830.23	864.839
833.605	1048.28
836.98	1262.08
840.355	1505.36
843.729	1874.59
847.104	2442.12
850.479	3536.33
853.854	5718.78
857.229	10243.1
860.603	17152.6
863.978	27252.5
867.353	42112.8
870.728	46483
874.103	24880.9
877.477	10388.9
880.852	5164.93
884.227	2914.84
887.602	1723.7
890.977	1068.89
894.352	693.635
897.726	450.315
901.101	301.748
904.476	222.087
907.851	151.683
911.226	72.7615
914.601	43.5723
917.975	30.8234
921.35	4.71692
924.725	14.9546
928.1	25.9017
931.475	18.2179
934.849	10.4619
938.224	1.04333
941.599	18.0537
944.974	23.3118
948.349	37.995
951.723	34.0448
955.098	21.7021
958.473	21.9479
961.848	22.359
965.223	21.1848
968.597	20.9431
971.972	37.6903
975.347	28.9805
978.722	47.0554
982.097	48.5821
985.472	53.1062
988.846	40.74
992.221	38.9989
995.596	39.9524
998.971	25.6271
1002.35	30.1443
1005.72	33.7219
1009.1	35.1781
1012.47	37.7142
1015.85	49.4308
1019.22	40.3557
1022.6	39.4717
1025.97	38.6637
1029.34	27.5647
1032.72	29.3489
1036.09	33.4005
1039.47	31.3481
1042.84	23.4883
1046.22	20.3428
1049.59	17.8524
1052.97	8.90515
1056.34	10.762
1059.72	10.1785
1063.09	2.53223
1066.47	3.22034
1069.84	0.085327
1073.22	2.69165
1076.59	2.07532
1079.97	0.629395
1083.34	0.639893
1086.72	12.6815
1090.09	6.90686
1093.47	6.20081
1096.84	16.5591
1100.21	15.0894
1103.59	17.2162
1106.96	18.6197
1110.34	8.73706
1113.71	11.6511
1117.09	7.00122
1120.46	11.3251
1123.84	9.29126
1127.21	4.1908
1130.59	6.89111
1133.96	9.54199
1137.34	5.65454
1140.71	1.29004
1144.09	2.61694
1147.46	15.7315
1150.84	0.845337
1154.21	8.09204
1157.59	22.0499
1160.96	16.8026
1164.34	22.1432
1167.71	16.281
1171.09	9.17273
1174.46	19.3439
1177.84	26.0188
1181.21	15.1432
1184.59	11.1272
1187.96	14.5653
1191.34	14.7164
1194.71	21.3292
1198.09	17.2921
1201.46	12.2461
1204.84	6.29724
1208.21	17.5734
1211.58	11.4095
1214.96	16.2012
1218.33	4.58875
1221.71	24.5031
1225.08	6.68787
1228.46	12.1381
1231.83	19.1052
1235.21	12.5325
1238.58	7.01819
1241.96	4.5022
1245.33	12.0531
1248.71	11.2449
1252.08	8.12769
1255.46	4.79053
1258.83	1.98523
1262.21	4.14587
1265.58	9.47266
1268.96	13.3827
1272.33	13.967
1275.71	9.24402
1279.08	7.86939
1282.46	0.677002
1285.83	7.50928
1289.2	14.1552
1292.58	12.2336
1295.95	2.87683
1299.33	9.28186
1302.7	0.001831
