Measurement: Raman, 780 nm, unoriented, Raman Data Processed
Mineral: Wulfenite
Rruff sample: R050149
Ideal chemistry: PbMoO_4_
Locality: Chapacase mine, Sierra Cerrillias District, Tocopilla, Chile
Source: Jim McGlasson
Description: Orange thin tabular crystals
Raman shift (cm-1)	intensity
122.375	0
125.75	0.222839
129.125	4.28073
132.499	13.0044
135.874	28.2731
139.249	50.2223
142.624	76.5254
145.999	113.738
149.373	147.958
152.748	181.087
156.123	217.368
159.498	252.499
162.873	287.342
166.248	311.445
169.622	296.066
172.997	267.44
176.372	245.375
179.747	236.484
183.122	246.487
186.496	257.655
189.871	259.035
193.246	223.066
196.621	159.411
199.996	100.341
203.37	57.2373
206.745	33.9261
210.12	19.255
213.495	8.41775
216.87	0.578735
220.245	3.96458
223.619	6.27196
226.994	5.12022
230.369	4.4491
233.744	0.661469
237.119	2.98286
240.494	0.667328
243.868	0.405182
247.243	4.50104
250.618	6.57779
253.993	9.70642
257.368	15.2108
260.742	23.0203
264.117	29.9869
267.492	37.1238
270.867	54.1913
274.242	71.5063
277.616	99.3912
280.991	137.005
284.366	193.814
287.741	283.594
291.116	432.27
294.49	692.866
297.865	1113.83
301.24	1613.64
304.615	2080.8
307.99	2566.45
311.365	3110.07
314.739	3571.93
318.114	3538.7
321.489	2674.66
324.864	1646.25
328.239	1006.18
331.613	655.983
334.988	462.236
338.363	365.375
341.738	319.23
345.113	301.585
348.488	313.598
351.862	303.364
355.237	246.895
358.612	196.164
361.987	120.816
365.362	67.8544
368.736	39.8567
372.111	24.5303
375.486	16.204
378.861	12.5849
382.236	8.06375
385.611	5.56984
388.985	0.410858
392.36	2.16902
395.735	3.38823
399.11	4.71936
402.485	3.8269
405.859	4.33789
409.234	2.59045
412.609	0.94313
415.984	1.58888
419.359	1.96863
422.733	3.55148
426.108	5.58316
429.483	6.93559
432.858	8.66841
436.233	10.8576
439.608	9.40122
442.982	12.1206
446.357	13.9967
449.732	12.7542
453.107	15.3192
456.482	14.1076
459.856	11.9657
463.231	10.9483
466.606	9.68974
469.981	7.69565
473.356	5.06271
476.731	5.17516
480.105	4.17851
483.48	1.22969
486.855	3.28272
490.23	2.50378
493.605	0.274002
496.979	2.36694
500.354	3.36476
503.729	1.08347
507.104	2.18407
510.479	1.15347
513.854	0.378281
517.228	0.216263
520.603	0.327408
523.978	0.742844
527.353	0.7052
530.728	1.9823
534.102	2.85466
537.477	0.597733
540.852	1.81845
544.227	0.747375
547.602	3.75969
550.976	3.85538
554.351	2.90074
557.726	3.33356
561.101	3.49675
564.476	4.10783
567.851	3.12436
571.225	3.78145
574.6	2.90834
577.975	3.67957
581.35	4.24171
584.725	3.40088
588.099	1.72978
591.474	5.5869
594.849	5.40771
598.224	3.69142
601.599	5.53809
604.973	6.86607
608.348	6.16869
611.723	7.94757
615.098	7.67928
618.473	5.51398
621.848	9.89142
625.222	10.4648
628.597	13.0198
631.972	12.3897
635.347	15.5665
638.722	18.6459
642.096	20.0131
645.471	22.569
648.846	26.1631
652.221	27.9054
655.596	28.6186
658.971	27.4406
662.345	24.9747
665.72	22.0848
669.095	20.0164
672.47	18.3622
675.845	15.1242
679.22	13.8551
682.594	10.159
685.969	7.26695
689.344	4.14842
692.719	1.8736
696.094	0.176559
699.468	2.30627
702.843	6.08537
706.218	4.78481
709.593	1.76492
712.968	3.96539
716.342	15.6769
719.717	38.304
723.092	80.8858
726.467	151.518
729.842	253.018
733.216	355.986
736.591	466.722
739.966	586.566
743.341	622.919
746.716	477.54
750.091	302.046
753.465	203.518
756.84	163.331
760.215	157.064
763.59	183.981
766.965	213.937
770.34	168.398
773.714	85.5298
777.089	34.3502
780.464	6.29706
783.839	4.2334
787.214	9.38635
790.588	1.60117
793.963	15.7249
797.338	50.535
800.713	104.924
804.088	181.288
807.462	271.969
810.837	375.87
814.212	470.485
817.587	497.351
820.962	434.075
824.337	338.113
827.711	252.659
831.086	193.183
834.461	161.682
837.836	157.127
841.211	176.175
844.585	224.11
847.96	332.373
851.335	565.485
854.71	1031.9
858.085	1627.94
861.46	2255.95
864.834	2996.27
868.209	3578.73
871.584	2965.52
874.959	1603.75
878.334	783.09
881.708	403.313
885.083	217.312
888.458	115.57
891.833	60.9578
895.208	29.6995
898.582	11.706
901.957	2.34148
905.332	1.70032
908.707	3.58304
912.082	5.64269
915.457	5.06557
918.831	1.3692
922.206	1.48399
925.581	0.768951
928.956	2.25569
932.331	4.57692
935.705	8.06184
939.08	8.2323
942.455	12.5093
945.83	14.4895
949.205	15.3381
952.58	18.5082
955.954	18.3358
959.329	19.3796
962.704	21.016
966.079	20.0305
969.454	19.4997
972.828	18.1561
976.203	17.6627
979.578	13.6333
982.953	15.8965
986.328	12.5144
989.702	11.9623
993.077	9.76783
996.452	9.74354
999.827	9.12734
1003.2	10.1178
1006.58	7.73004
1009.95	6.77184
1013.33	8.87697
1016.7	6.15065
1020.08	5.66959
1023.45	5.14357
1026.83	3.24835
1030.2	4.05409
1033.58	1.29811
1036.95	2.90712
1040.33	2.74185
1043.7	4.48004
1047.07	3.01962
1050.45	0.697662
1053.82	3.28545
1057.2	2.03439
1060.57	0.390213
1063.95	0.816437
1067.32	0.507843
1070.7	1.97458
1074.07	3.7749
1077.45	4.61882
1080.82	3.66901
1084.2	6.39304
1087.57	4.65623
1090.95	4.45171
1094.32	6.75871
1097.7	5.03682
1101.07	6.98827
1104.45	6.5304
1107.82	8.68564
1111.2	5.12456
1114.57	6.19197
1117.94	4.03415
1121.32	3.99826
1124.69	0.308914
1128.07	1.3932
1131.44	0.037567
1134.82	1.27806
1138.19	0.247406
1141.57	1.54608
1144.94	0.381516
1148.32	1.30312
1151.69	0.562317
1155.07	0.349289
1158.44	2.12473
1161.82	1.09672
1165.19	1.00375
1168.57	1.64543
1171.94	1.41036
1175.32	2.4549
1178.69	3.61003
1182.07	4.44069
1185.44	4.306
1188.82	5.77475
1192.19	4.20294
1195.57	2.57941
1198.94	2.71919
1202.32	1.62833
1205.69	2.31657
1209.07	7.60971
1212.44	3.49965
1215.82	4.44989
1219.19	5.23091
1222.57	2.27605
1225.94	5.24074
1229.31	3.56451
1232.69	5.62676
1236.06	4.58116
1239.44	5.03619
1242.81	6.20804
1246.19	5.03693
1249.56	8.41126
1252.94	5.35254
1256.31	5.02762
1259.69	4.06622
1263.06	3.61556
1266.44	2.68953
1269.81	0.349365
1273.19	2.30103
1276.56	0.18219
1279.94	1.13834
1283.31	3.49451
