Measurement: Raman, 780 nm, unoriented, Raman Data Processed
Mineral: Wulfenite
Rruff sample: R050501
Ideal chemistry: PbMoO_4_
Locality: Los Lamentos, Chihuahua, Mexico
Source: California Institute of Technology
Description: Orange tabular crystal
Measured chemistry: Pb_1.00_Mo_1.00_O_4_
Raman shift (cm-1)	intensity
92.6882	0
96.063	116.008
99.4378	341.625
102.813	368.289
106.187	180.397
109.562	42.4491
112.937	7.9231
116.312	9.71551
119.687	5.91718
123.061	36.4813
126.436	62.5418
129.811	117.172
133.186	181.08
136.561	305.907
139.936	499.541
143.31	784.669
146.685	1130.86
150.06	1519.69
153.435	1901.91
156.81	2261.72
160.185	2560.81
163.559	2728.27
166.934	2610.97
170.309	2124.11
173.684	1513.92
177.059	1118.71
180.433	959.005
183.808	924.466
187.183	928.433
190.558	887.713
193.933	685.071
197.307	421.012
200.682	237.909
204.057	133.133
207.432	94.7595
210.807	37.9892
214.181	18.505
217.556	2.60748
220.931	8.9577
224.306	11.0539
227.681	13.7386
231.056	13.3786
234.43	9.1828
237.805	3.24756
241.18	1.72723
244.555	9.74054
247.93	20.4265
251.304	29.0947
254.679	35.3738
258.054	47.6643
261.429	59.3284
264.804	74.442
268.178	104.479
271.553	140.563
274.928	199.834
278.303	274.611
281.678	389.973
285.053	560.101
288.427	843.59
291.802	1340.28
295.177	2261.84
298.552	3717.46
301.927	5174.99
305.301	6435.89
308.676	7945.19
312.051	9656.51
315.426	10733.2
318.801	8671.11
322.175	4703.76
325.55	2400.32
328.925	1475.07
332.3	1168.89
335.675	1005.86
339.05	1031.01
342.424	1128.77
345.799	1321.54
349.174	1444.24
352.549	919.364
355.924	668.38
359.298	423.494
362.673	201.273
366.048	91.9431
369.423	44.6991
372.798	19.7322
376.173	2.40979
379.547	1.24262
382.922	5.3663
386.297	3.70444
389.672	9.11527
393.047	7.12091
396.421	7.03925
399.796	5.88989
403.171	1.88312
406.546	4.73981
409.921	5.83765
413.296	9.58316
416.67	10.1981
420.045	12.8255
423.42	12.9547
426.795	15.5844
430.17	16.7729
433.544	21.9685
436.919	25.8274
440.294	27.7359
443.669	26.9169
447.044	30.3382
450.418	27.7151
453.793	25.4116
457.168	23.2856
460.543	21.7841
463.918	16.5808
467.293	17.3677
470.667	17.8066
474.042	17.3278
477.417	14.3846
480.792	15.1508
484.167	11.7561
487.541	13.8321
490.916	13.2134
494.291	10.6023
497.666	11.5797
501.041	11.8156
504.416	9.22945
507.79	6.98959
511.165	5.32805
514.54	2.84993
517.915	4.83084
521.29	2.51251
524.664	1.66444
528.039	1.07159
531.414	1.67682
534.789	1.15773
538.164	0.475143
541.538	1.70302
544.913	2.14375
548.288	1.4987
551.663	1.09355
555.038	2.15131
558.413	0.207672
561.787	1.51201
565.162	1.01421
568.537	0.092911
571.912	2.03464
575.287	0.170227
578.661	1.18778
582.036	0.39917
585.411	0.199203
588.786	2.04637
592.161	2.46715
595.535	0.696548
598.91	3.35022
602.285	3.56711
605.66	4.0632
609.035	1.70148
612.41	1.25236
615.784	1.83814
619.159	2.56001
622.534	3.86414
625.909	5.87759
629.284	6.65021
632.658	10.7021
636.033	12.5949
639.408	13.958
642.783	15.9502
646.158	18.7311
649.533	19.9849
652.907	21.5406
656.282	22.8882
659.657	22.3659
663.032	20.9313
666.407	19.7662
669.781	20.0981
673.156	17.282
676.531	16.4637
679.906	13.0037
683.281	7.41231
686.655	5.19331
690.03	1.87849
693.405	0.543335
696.78	3.3056
700.155	2.96988
703.53	2.16437
706.904	0.146301
710.279	6.65894
713.654	23.3153
717.029	53.6646
720.404	114.308
723.778	244.791
727.153	528.85
730.528	908.452
733.903	1267.92
737.278	1739.59
740.653	2270.65
744.027	2169.03
747.402	1230.05
750.777	724.926
754.152	617.021
757.527	642.952
760.901	754.371
764.276	896.042
767.651	769.725
771.026	380.804
774.401	158.311
777.775	65.0301
781.15	27.4005
784.525	9.952
787.9	0.458435
791.275	4.82282
794.649	10.3353
798.024	9.99307
801.399	1.6369
804.774	11.2711
808.149	31.0323
811.524	56.5855
814.898	94.8081
818.273	146.388
821.648	209.665
825.023	278
828.398	357.283
831.773	448.359
835.147	548.895
838.522	677.188
841.897	877.045
845.272	1210.75
848.647	1820.71
852.021	3124.74
855.396	5804.61
858.771	8804.28
862.146	11863.6
865.521	15825.3
868.895	17540
872.27	10186.5
875.645	4231.51
879.02	2045.88
882.395	1146.48
885.769	677.151
889.144	419.008
892.519	269.473
895.894	178.251
899.269	119.651
902.644	85.091
906.018	61.2776
909.393	32.8028
912.768	17.4168
916.143	7.86618
919.518	0.39743
922.893	5.88101
926.267	9.62839
929.642	6.73114
933.017	4.0396
936.392	0.497452
939.767	2.59961
943.141	6.79408
946.516	9.63792
949.891	8.48209
953.266	6.08882
956.641	6.93147
960.015	4.24789
963.39	2.38893
966.765	5.30463
970.14	5.46884
973.515	10.6677
976.889	14.025
980.264	15.8642
983.639	16.7958
987.014	12.6354
990.389	10.0467
993.764	10.9926
997.138	11.0279
1000.51	14.4297
1003.89	14.2414
1007.26	15.0534
1010.64	16.3683
1014.01	17.4139
1017.39	16.2945
1020.76	17.4981
1024.14	13.1917
1027.51	13.9188
1030.89	10.3423
1034.26	11.3973
1037.64	9.52434
1041.01	8.53343
1044.39	7.16312
1047.76	7.19595
1051.13	3.91211
1054.51	5.7179
1057.88	3.6082
1061.26	3.74834
1064.63	1.08772
1068.01	10.0518
1071.38	2.96832
1074.76	2.58633
1078.13	0.324051
1081.51	3.1311
1084.88	3.74155
1088.26	2.06943
1091.63	4.05005
1095.01	4.33672
1098.38	6.89563
1101.76	6.07932
1105.13	6.57706
1108.51	7.16862
1111.88	7.50178
1115.26	4.33408
1118.63	3.10938
1122.01	0.126724
1125.38	1.99721
1128.76	0.918259
1132.13	2.37265
1135.51	2.06151
1138.88	1.04393
1142.26	1.4478
1145.63	0.405914
1149.01	2.36531
1152.38	3.04213
1155.76	3.03078
1159.13	3.91022
1162.5	4.75369
1165.88	6.79445
1169.25	4.28232
1172.63	6.65161
1176	4.3922
1179.38	6.42952
1182.75	6.92253
1186.13	6.21034
1189.5	6.01962
1192.88	4.43964
1196.25	4.14642
1199.63	3.87746
1203	4.46149
1206.38	4.52405
1209.75	4.20035
1213.13	2.84258
1216.5	2.23045
1219.88	2.08841
1223.25	3.46777
1226.63	2.81174
1230	3.89807
1233.38	2.72818
1236.75	0.508118
1240.12	1.91437
1243.5	1.75047
1246.88	3.93602
1250.25	1.62317
1253.62	0.901917
1257	5.4792
1260.37	3.12178
1263.75	1.52884
1267.12	0.477707
1270.5	3.18475
1273.87	2.27394
1277.25	2.89848
1280.62	2.87091
1284	0.804565
