Measurement: Raman, 514 nm, unoriented, Raman Data Processed
Mineral: Wulfenite
Rruff sample: R050024
Ideal chemistry: PbMoO_4_
Locality: Old Yuma mine, Tucson, Arizona, USA
Source: Eugene Schlepp
Description: Orange flat tabular crystals
Raman shift (cm-1)	intensity
54.266	0
58.464	1.08
62.661	13.958
66.856	143.049
71.048	490.857
75.239	507.008
79.427	93.666
83.614	84.66
87.798	135.238
91.981	138.905
96.161	179.31
100.34	196.133
104.516	187.081
108.691	206.991
112.864	183.759
117.034	213.311
121.203	191.581
125.369	220.508
129.534	239.039
133.696	270.127
137.857	297.715
142.016	356.397
146.172	472.177
150.327	699.166
154.48	1115.44
158.63	1944.01
162.779	3023.9
166.926	3955.12
171.07	3755.67
175.213	2409.54
179.354	1253.71
183.493	710.129
187.63	495.792
191.765	366.714
195.898	302.856
200.029	199.205
204.158	168.748
208.285	149.511
212.41	125.464
216.533	88.613
220.654	84.061
224.773	94.407
228.891	68.854
233.006	68.045
237.119	86.984
241.231	73.38
245.34	78.089
249.448	99.933
253.553	99.622
257.657	109.464
261.758	138.375
265.858	139.067
269.956	131.94
274.052	161.194
278.146	196.003
282.237	217.29
286.327	276.95
290.416	370.853
294.502	503.441
298.586	712.139
302.668	1108.72
306.749	1953.18
310.827	4044.79
314.903	7659.8
318.978	9298.82
323.051	5696.78
327.121	2574.04
331.19	1302.47
335.257	723.63
339.322	526.983
343.385	497.277
347.446	772.623
351.505	704.769
355.563	313.121
359.618	162.699
363.672	61.549
367.723	36.679
371.773	29.439
375.821	38.083
379.866	26.034
383.91	6.034
387.952	25.57
391.992	3.255
396.031	8.512
400.067	7.718
404.101	2.598
408.134	7.571
412.165	14.476
416.193	2.033
420.22	0.183
424.245	20.902
428.268	9.445
432.289	22.881
436.309	17.666
440.326	23.599
444.342	14.127
448.355	13.785
452.367	3.541
456.377	1.949
460.385	1.869
464.391	11.832
468.395	20.192
472.398	32.25
476.398	16.744
480.397	24.894
484.394	2.446
488.389	13.696
492.382	11.914
496.373	20.41
500.362	17.612
504.349	29.184
508.335	18.162
512.319	10.011
516.3	13.775
520.28	23.461
524.259	15.08
528.235	13.619
532.209	38.071
536.182	9.444
540.152	20.741
544.121	19.956
548.088	10.064
552.053	25.083
556.017	16.867
559.978	17.692
563.938	30.231
567.895	40.684
571.851	9.532
575.805	18.582
579.758	11.64
583.708	16.064
587.657	0.985
591.603	12.792
595.548	6.224
599.491	5.625
603.432	9.969
607.372	2.548
611.309	0.928
615.245	7.847
619.179	24.054
623.111	15.78
627.041	0.427
630.97	7.5
634.896	10.814
638.821	12.116
642.744	3.599
646.665	25.155
650.584	5.492
654.502	15.137
658.418	27.417
662.331	1.074
666.244	27.531
670.154	12.983
674.062	21.553
677.969	15.917
681.874	32.789
685.777	40.429
689.678	38.68
693.577	59.51
697.475	56.724
701.371	77.538
705.265	63.598
709.157	65.247
713.047	114.875
716.936	67.715
720.823	96.27
724.708	141.367
728.591	188.099
732.472	202.968
736.352	296.83
740.23	529.241
744.106	856.44
747.98	823.605
751.853	848.379
755.723	1202.97
759.592	2212.52
763.459	4976.33
767.325	8894.19
771.188	6650.47
775.05	3151.66
778.91	1732.84
782.768	1269.87
786.625	1118.75
790.479	1097.5
794.332	986.752
798.183	887.159
802.033	838.573
805.88	907.762
809.726	925.674
813.57	1011.35
817.413	1120.74
821.253	1140.21
825.092	1219.84
828.929	1348.55
832.764	1593.35
836.598	1844.22
840.429	1988.21
844.259	2271.26
848.088	2686.5
851.914	3402.71
855.739	4807.08
859.562	7595.48
863.383	14765.1
867.203	35470.7
871.02	54960.9
874.836	29062.9
878.65	11120.7
882.463	5034.61
886.274	2796.59
890.083	1867.66
893.89	1283.91
897.695	911.785
901.499	755.205
905.301	592.657
909.102	545.204
912.9	426.32
916.697	390.647
920.492	315.051
924.285	268.074
928.077	226.195
931.867	209.149
935.655	205.548
939.442	226.492
943.226	220.856
947.009	212.291
950.791	236.891
954.57	201.473
958.348	145.147
962.124	119.01
965.899	67.017
969.671	50.085
973.442	35.063
977.211	3.199
980.979	18.944
984.745	22.199
988.509	6.431
992.271	4.034
996.032	25.329
999.791	11.623
1003.55	4.605
1007.3	18.217
1011.06	8.6
1014.81	1.979
1018.56	6.522
1022.31	1.955
1026.06	1.447
1029.8	0.96
1033.55	23.494
1037.29	9.091
1041.03	9.665
1044.77	11.745
1048.5	2.158
1052.24	8.436
1055.97	8.038
1059.7	6.352
1063.43	10.246
1067.16	4.202
1070.89	0.31
1074.61	28.192
1078.34	2.205
1082.06	1.529
1085.78	8.803
1089.5	27.051
1093.21	36.291
1096.93	3.59
1100.64	34.783
1104.35	27.013
1108.06	30.159
1111.77	37.278
1115.48	6.592
1119.18	20.149
1122.89	1.076
1126.59	21.427
1130.29	18.548
1133.99	11.511
1137.68	22.585
1141.38	15.368
1145.07	18.507
1148.76	22.861
1152.45	58.817
1156.14	26.915
1159.83	46.891
1163.51	63.882
1167.19	71.948
1170.88	56.089
1174.56	63.199
1178.23	59.95
1181.91	71.412
1185.59	71.849
1189.26	88.235
1192.93	65.963
1196.6	74.014
1200.27	94.165
1203.94	101.251
1207.6	90.344
1211.27	72.003
1214.93	46.09
1218.59	38.457
1222.25	85.467
1225.9	67.671
1229.56	38.5
1233.21	57.892
1236.86	28.734
1240.51	42.393
1244.16	33.729
1247.81	38.155
1251.45	37.584
1255.1	38.908
1258.74	16.936
1262.38	36.224
1266.02	32.501
1269.66	36.722
1273.29	16.043
1276.93	23.158
1280.56	13.609
1284.19	24.409
1287.82	23.89
1291.45	4.54
1295.07	60.998
1298.7	20.014
1302.32	9.039
1305.94	20.339
1309.56	4.318
1313.18	28.94
1316.8	46.155
1320.41	0.322
1324.02	24.432
1327.63	10.487
1331.24	36.455
1334.85	37.419
1338.46	2.334
1342.06	7.215
1345.67	42.063
1349.27	20.87
1352.87	49.642
1356.47	16.396
1360.07	20.15
1363.66	31.891
1367.25	66.644
1370.85	5.439
1374.44	40.284
1378.03	36.566
1381.61	2.4
1385.2	65.254
1388.78	13.528
1392.37	53.824
1395.95	49.613
1399.53	28.854
1403.1	58.43
1406.68	25.116
1410.26	76.651
1413.83	57.435
1417.4	29.541
1420.97	27.041
1424.54	12.101
1428.1	1.897
1431.67	43.095
1435.23	53.001
1438.8	44.419
1442.36	37.609
1445.91	17.707
1449.47	13.776
1453.03	58.043
1456.58	44.733
1460.13	35.385
1463.68	42.197
1467.23	86.891
1470.78	32.622
1474.33	54.823
1477.87	73.924
1481.42	36.102
1484.96	83.341
1488.5	71.45
1492.04	51.744
1495.57	59.21
1499.11	26.951
1502.64	60.979
1506.17	40.34
1509.71	41.24
1513.23	23.866
1516.76	2.404
1520.29	68.999
1523.81	0
