Measurement: Raman, 785 nm, unoriented, Raman Data Processed
Mineral: Wulfenite
Rruff sample: R050024
Ideal chemistry: PbMoO_4_
Locality: Old Yuma mine, Tucson, Arizona, USA
Source: Eugene Schlepp
Description: Orange flat tabular crystals
Raman shift (cm-1)	intensity
87.7534	0
90.6461	4.87072
93.5388	4.21557
96.4315	11.3384
99.3242	13.1367
102.217	12.6772
105.11	17.2912
108.002	22.6965
110.895	20.4184
113.788	17.2498
116.68	19.8401
119.573	15.0989
122.466	9.66272
125.359	2.4244
128.251	7.31213
131.144	12.4425
134.037	20.5587
136.929	0.420521
139.822	1.74219
142.715	10.332
145.607	10.9718
148.5	27.16
151.393	46.0172
154.286	49.8576
157.178	40.7366
160.071	63.0805
162.964	84.2014
165.856	118.985
168.749	127.765
171.642	117.79
174.534	106.813
177.427	101.445
180.32	121.514
183.212	123.483
186.105	178.882
188.998	237.038
191.891	271.082
194.783	230.643
197.676	156.205
200.569	88.0484
203.461	34.8339
206.354	23.5266
209.247	12.367
212.139	8.15805
215.032	20.2384
217.925	30.9541
220.818	29.5025
223.71	36.0675
226.603	40.3285
229.496	55.3756
232.388	50.2618
235.281	36.4873
238.174	40.8434
241.066	33.9494
243.959	7.92627
246.852	1.16022
249.745	16.1094
252.637	17.9927
255.53	25.319
258.423	5.27975
261.315	14.8286
264.208	23.2803
267.101	72.2232
269.993	113.765
272.886	165.867
275.779	252.162
278.672	329.182
281.564	389.306
284.457	488.668
287.35	561.621
290.242	612.398
293.135	658.215
296.028	676.58
298.921	756.78
301.813	908.292
304.706	1160.19
307.599	1491.55
310.491	2044.63
313.384	2833.8
316.277	3843.63
319.169	3939.18
322.062	2638.08
324.955	1415.41
327.847	802.724
330.74	485.523
333.633	334.352
336.526	224.025
339.418	168.543
342.311	155.524
345.204	136.22
348.096	190.414
350.989	234.557
353.882	233.439
356.774	281.481
359.667	206.114
362.56	100.389
365.452	53.8266
368.345	26.5259
371.238	8.8342
374.131	17.7422
377.023	29.5619
379.916	25.4964
382.809	34.3403
385.701	20.4145
388.594	15.391
391.487	19.3059
394.38	2.63937
397.272	16.2699
400.165	21.0139
403.058	10.7573
405.95	10.3243
408.843	1.89935
411.736	5.24615
414.628	4.76306
417.521	1.64087
420.414	5.90765
423.307	15.8794
426.199	2.56598
429.092	1.13388
431.985	16.9633
434.877	7.87824
437.77	20.7138
440.663	17.5233
443.555	31.8102
446.448	30.2929
449.341	15.1257
452.234	51.4507
455.126	59.98
458.019	71.2646
460.912	88.1969
463.804	94.4767
466.697	95.3741
469.59	105.918
472.483	111.285
475.375	116.112
478.268	106.027
481.161	94.1948
484.053	77.1636
486.946	87.4666
489.839	86.2435
492.731	64.9473
495.624	67.6131
498.517	48.6954
501.409	50.6763
504.302	46.8338
507.195	34.5404
510.088	38.6977
512.98	26.6107
515.873	27.6871
518.766	25.3418
521.658	30.0362
524.551	25.7696
527.444	12.3857
530.337	20.0248
533.229	15.5964
536.122	6.13504
539.015	10.9614
541.907	4.54233
544.8	3.66287
547.693	2.20253
550.585	8.77231
553.478	1.49059
556.371	2.42815
559.263	1.74353
562.156	4.36343
565.049	1.86693
567.942	3.23682
570.834	9.30051
573.727	7.87277
576.62	26.3864
579.512	30.1037
582.405	25.9022
585.298	37.6866
588.19	34.8786
591.083	25.5559
593.976	42.2485
596.869	36.5967
599.761	43.2052
602.654	37.0693
605.547	34.5575
608.439	28.8824
611.332	28.5943
614.225	20.5359
617.117	19.5795
620.01	12.8514
622.903	17.3674
625.795	17.1646
628.688	22.0947
631.581	21.4521
634.474	29.4511
637.366	35.5365
640.259	44.7856
643.152	45.3506
646.044	61.0476
648.937	54.3539
651.83	60.2153
654.722	62.8146
657.615	55.2163
660.508	42.328
663.401	45.5514
666.293	24.6608
669.186	24.7366
672.079	25.9054
674.971	15.3439
677.864	18.9757
680.757	10.7936
683.649	12.0219
686.542	9.38001
689.435	12.9148
692.328	9.9238
695.22	5.22603
698.113	3.64508
701.006	4.80167
703.898	1.89835
706.791	7.37019
709.684	4.314
712.577	2.48459
715.469	3.1687
718.362	14.5909
721.255	23.1262
724.147	39.4921
727.04	77.4525
729.933	136.735
732.825	257.469
735.718	441.223
738.611	755.408
741.504	1131.48
744.396	1231.05
747.289	793.071
750.182	432.61
753.074	250.1
755.967	176.366
758.86	196.508
761.752	249.42
764.645	332.59
767.538	346.549
770.431	215.163
773.323	113.541
776.216	44.6872
779.109	23.4605
782.001	6.75049
784.894	5.77066
787.787	1.31976
790.679	4.45744
793.572	4.43501
796.465	2.79579
799.357	12.5845
802.25	2.8335
805.143	14.642
808.036	9.02757
810.928	15.2195
813.821	30.4004
816.714	32.1933
819.606	53.6481
822.499	61.8983
825.392	82.905
828.284	96.9638
831.177	126.951
834.07	157.051
836.963	186.067
839.855	219.788
842.748	250.14
845.641	316.013
848.533	394.621
851.426	525.167
854.319	792.347
857.212	1295.22
860.104	2168.13
862.997	3556.89
865.89	5810.9
868.782	8280.22
871.675	6923.21
874.568	3497.97
877.46	1593.15
880.353	823.624
883.246	485.969
886.139	286.833
889.031	208.232
891.924	144.807
894.817	93.7388
897.709	66.3348
900.602	46.2822
903.495	39.9148
906.388	29.2501
909.28	19.3922
912.173	8.97121
915.066	5.46564
917.958	13.2624
920.851	9.25211
923.744	2.43814
926.636	3.43102
929.529	4.33437
932.422	1.80788
935.314	2.66013
938.207	4.26761
941.1	1.09031
943.993	3.98065
946.885	5.41579
949.778	20.3052
952.671	6.69991
955.563	15.1713
958.456	11.1553
961.349	5.0462
964.241	15.8682
967.134	19.9631
970.027	22.7511
972.92	20.1536
975.812	25.0006
978.705	22.013
981.598	21.7536
984.49	23.4717
987.383	27.2665
990.276	38.4285
993.168	27.7482
996.061	21.1467
998.954	32.0254
1001.85	24.5512
1004.74	30.0923
1007.63	28.4984
1010.52	29.8315
1013.42	35.5988
1016.31	24.3114
1019.2	38.0402
1022.1	29.3133
1024.99	37.9244
1027.88	41.0931
1030.77	26.7641
1033.67	45.3205
1036.56	35.8706
1039.45	32.9421
1042.34	29.6743
1045.24	35.7848
1048.13	32.8182
1051.02	32.4168
1053.91	38.0355
1056.81	38.0962
1059.7	33.5239
1062.59	30.4595
1065.49	27.9546
1068.38	24.58
1071.27	28.358
1074.16	26.5156
1077.06	19.0977
1079.95	19.7266
1082.84	20.9234
1085.73	12.9423
1088.63	24.4161
1091.52	13.3293
1094.41	0.300003
1097.31	2.46748
1100.2	6.18799
1103.09	1.65497
1105.98	0.014801
1108.88	7.38638
1111.77	10.6408
1114.66	8.82352
1117.56	10.3415
1120.45	21.3749
1123.34	27.3162
1126.23	12.3533
1129.12	37.8613
1132.02	36.2406
1134.91	40.7613
1137.8	46.0462
1140.7	40.218
1143.59	46.3165
1146.48	12.8209
1149.37	43.6038
1152.27	26.5823
1155.16	2.86822
1158.05	4.63635
1160.94	12.6318
1163.84	15.3807
1166.73	0.395813
1169.62	13.1796
1172.52	27.861
