Measurement: Raman, 532 nm, unoriented, Raman Data Processed
Mineral: Wulfenite
Rruff sample: R050024
Ideal chemistry: PbMoO_4_
Locality: Old Yuma mine, Tucson, Arizona, USA
Source: Eugene Schlepp
Description: Orange flat tabular crystals
Raman shift (cm-1)	intensity
116.396	0
119.771	7.06875
123.145	3.0132
126.52	23.9842
129.895	61.3197
133.27	96.3609
136.645	175.475
140.019	238.998
143.394	317.649
146.769	444.482
150.144	677.522
153.519	1013.98
156.894	1428.03
160.268	1956.61
163.643	2483.06
167.018	2751.92
170.393	2481.55
173.768	1694.22
177.143	1062.23
180.517	763.404
183.892	673.914
187.267	670.101
190.642	690.042
194.017	577.872
197.391	400.845
200.766	234.495
204.141	169.498
207.516	108.115
210.891	68.7867
214.266	35.1315
217.64	29.1683
221.015	27.4793
224.39	6.99255
227.765	3.36252
231.14	6.76022
234.514	12.5313
237.889	4.10666
241.264	9.46082
244.639	4.24484
248.014	3.83163
251.388	9.28571
254.763	19.5414
258.138	12.8937
261.513	24.844
264.888	30.7148
268.263	34.971
271.637	44.6583
275.012	59.1422
278.387	97.9316
281.762	138.373
285.137	197.762
288.512	283.77
291.886	418.47
295.261	629.996
298.636	1010.16
302.011	1730.82
305.386	2875.39
308.76	4573.28
312.135	7079.53
315.51	9782.48
318.885	9746.63
322.26	5467.78
325.635	2480.13
329.009	1277.97
332.384	785.638
335.759	624.733
339.134	612.737
342.509	747.776
345.883	1048.56
349.258	1474.83
352.633	912.141
356.008	512.619
359.383	332.114
362.757	158.487
366.132	89.0403
369.507	33.7311
372.882	19.726
376.257	15.3656
379.632	12.0848
383.006	12.1271
386.381	5.36578
389.756	7.6929
393.131	1.60043
396.506	6.72235
399.88	1.10739
403.255	10.1803
406.63	5.5943
410.005	16.2728
413.38	4.90935
416.755	9.98698
420.129	12.0854
423.504	15.9681
426.879	12.3186
430.254	21.3486
433.629	13.3733
437.003	24.8002
440.378	19.7383
443.753	14.7864
447.128	21.9926
450.503	23.7993
453.878	29.985
457.252	17.784
460.627	14.7922
464.002	19.5109
467.377	5.3803
470.752	25.3666
474.127	13.2055
477.501	16.627
480.876	20.9522
484.251	15.6928
487.626	13.3332
491.001	8.96599
494.375	16.6993
497.75	8.81015
501.125	0.162231
504.5	15.6759
507.875	3.63028
511.25	1.31189
514.624	1.89915
517.999	0.727112
521.374	0.891174
524.749	2.47853
528.124	2.54269
531.498	9.48891
534.873	6.39706
538.248	0.233658
541.623	11.8742
544.998	1.30292
548.372	10.7421
551.747	11.2628
555.122	11.8287
558.497	7.44234
561.872	4.50534
565.247	2.1248
568.621	1.15623
571.996	2.0796
575.371	1.43986
578.746	6.95915
582.121	7.9937
585.495	20.1638
588.87	9.34398
592.245	6.92993
595.62	24.5366
598.995	16.0908
602.37	16.7279
605.744	12.3687
609.119	20.9057
612.494	23.6202
615.869	22.9244
619.244	17.8153
622.619	26.9093
625.993	27.951
629.368	28.3945
632.743	33.9918
636.118	28.2726
639.493	40.248
642.867	42.1228
646.242	49.6098
649.617	48.0428
652.992	72.9667
656.367	78.2721
659.741	77.3163
663.116	83.7647
666.491	85.2005
669.866	84.4765
673.241	69.0242
676.616	66.1332
679.99	51.946
683.365	55.7571
686.74	39.9916
690.115	32.1932
693.49	27.3817
696.865	24.7024
700.239	14.8402
703.614	9.52499
706.989	6.28128
710.364	10.7937
713.739	4.34262
717.113	15.5161
720.488	32.0942
723.863	130.469
727.238	306.012
730.613	736.074
733.987	1532.97
737.362	2650.15
740.737	3889.22
744.112	4102.99
747.487	2374.66
750.862	1256.79
754.236	1126.2
757.611	1639.72
760.986	2514.47
764.361	3509.34
767.736	3392.39
771.111	1726.44
774.485	691.787
777.86	245.339
781.235	75.5501
784.61	19.0033
787.985	4.04541
791.359	28.9705
794.734	31.4359
798.109	32.6561
801.484	51.8323
804.859	166.782
808.234	321.427
811.608	552.051
814.983	717.504
818.358	648.793
821.733	598.75
825.108	672.411
828.482	767.991
831.857	964.366
835.232	1168.2
838.607	1429.87
841.982	1710.54
845.356	2211.89
848.731	3060.11
852.106	4606.53
855.481	7825.59
858.856	15005.8
862.231	26916.3
865.605	42670.2
868.98	54938.9
872.355	34905.6
875.73	13748.7
879.105	5986.83
882.48	3077.87
885.854	1755.5
889.229	1084.92
892.604	684.686
895.979	445.429
899.354	272.513
902.729	176.708
906.103	87.8334
909.478	44.5006
912.853	19.0424
916.228	17.1821
919.602	10.3036
922.977	26.9256
926.352	26.0953
929.727	7.36536
933.102	22.5656
936.477	23.4027
939.851	46.3108
943.226	39.7206
946.601	52.6377
949.976	50.2104
953.351	37.8934
956.726	48.8953
960.1	38.7936
963.475	23.0373
966.85	26.6672
970.225	26.548
973.6	50.9854
976.974	59.288
980.349	40.4597
983.724	44.241
987.099	47.2389
990.474	32.2227
993.848	18.911
997.223	26.8101
1000.6	31.8088
1003.97	37.232
1007.35	39.7156
1010.72	53.4248
1014.1	41.1141
1017.47	48.6551
1020.85	44.5218
1024.22	43.357
1027.6	24.9559
1030.97	42.0471
1034.35	33.3742
1037.72	31.6032
1041.1	30.1961
1044.47	23.8817
1047.85	16.5382
1051.22	5.73022
1054.6	23.0934
1057.97	9.32819
1061.35	16.5519
1064.72	9.08951
1068.09	8.15659
1071.47	0.002319
1074.84	8.64825
1078.22	2.26086
1081.59	3.71524
1084.97	6.53836
1088.34	3.44391
1091.72	14.0977
1095.09	1.71307
1098.47	32.4819
1101.84	19.8062
1105.22	15.6877
1108.59	20.6533
1111.97	31.1448
1115.34	15.2564
1118.72	17.1959
1122.09	1.58841
1125.47	4.00034
1128.84	7.83762
1132.22	1.93054
1135.59	5.42551
1138.97	9.36459
1142.34	4.11539
1145.71	2.12415
1149.09	12.7094
1152.46	15.04
1155.84	21.4041
1159.21	22.5641
1162.59	26.0816
1165.96	21.6074
1169.34	28.7245
1172.71	25.8623
1176.09	28.5797
1179.46	24.1066
1182.84	22.2733
1186.21	23.4476
1189.59	22.5977
1192.96	27.8914
1196.34	20.5493
1199.71	26.0896
1203.09	20.6283
1206.46	14.3981
1209.84	10.0802
1213.21	8.45273
1216.59	17.7702
1219.96	12.9424
1223.34	7.75275
1226.71	7.2132
1230.09	6.01572
1233.46	1.19351
1236.84	9.23721
1240.21	6.22406
1243.59	1.59277
1246.96	2.41174
1250.34	12.7121
1253.71	13.5145
1257.08	4.88452
1260.46	16.1822
1263.83	0.024231
1267.21	3.81223
1270.58	7.33548
1273.96	1.1264
1277.33	12.6264
1280.71	5.25586
1284.08	21.887
1287.46	7.85483
1290.83	16.7517
1294.21	4.59656
1297.58	16.6663
1300.96	12.1313
1304.33	12.5243
1307.71	6.86856
