Measurement: Raman, 532 nm, unoriented, Raman Data Processed
Mineral: Wurtzite
Rruff sample: R060181
Ideal chemistry: ZnS
Locality: Silver Islet mine, Thunder Bay, Ontario, Canada
Source: Lloyd Twaites
Description: Dark-brown hexagonal prisms, polytype 2H
Measured chemistry: (Zn_0.88_Fe_0.12_)S_1.00_
Raman shift (cm-1)	intensity
150.528	0
153.421	2.78923
156.314	5.52058
159.207	16.7312
162.099	27.3788
164.992	36.6264
167.885	56.4068
170.777	82.1234
173.67	96.2308
176.563	106.168
179.455	96.6899
182.348	72.2706
185.241	58.1906
188.133	51.2537
191.026	49.5711
193.919	63.9118
196.812	76.0869
199.704	100.51
202.597	122.166
205.49	143.663
208.382	168.514
211.275	198.01
214.168	230.883
217.06	235.327
219.953	205.309
222.846	162.409
225.739	128.151
228.631	104.709
231.524	89.2039
234.417	76.8069
237.31	55.6424
240.202	17.3774
243.095	1.73361
245.988	8.63231
248.88	0.340535
251.773	4.77957
254.666	2.03661
257.558	0.882311
260.451	1.4922
263.344	10.1955
266.236	24.4138
269.129	46.4734
272.022	60.4323
274.915	66.3763
277.807	64.0558
280.7	74.4857
283.593	95.8786
286.485	119.944
289.378	148.344
292.271	175.971
295.163	197.345
298.056	193.725
300.949	152.688
303.842	94.5211
306.734	50.3885
309.627	23.1997
312.52	1.36989
315.413	3.50427
318.305	7.04178
321.198	11.8678
324.091	53.8133
326.983	86.7677
329.876	134.745
332.769	253.423
335.661	312.814
338.554	335.442
341.447	425.365
344.339	681.449
347.232	1074.6
350.125	1039.64
353.018	340.992
355.91	116.568
358.803	53.7794
361.696	27.5126
364.588	19.4355
367.481	12.8799
370.374	11.5361
373.267	13.3437
376.159	9.31504
379.052	9.49608
381.945	13.894
384.837	21.6458
387.73	33.0941
390.623	37.4971
393.515	44.9645
396.408	43.2944
399.301	38.4543
402.194	32.8788
405.086	33.726
407.979	33.9175
410.872	47.1932
413.764	71.8815
416.657	87.8515
419.55	96.074
422.442	89.1784
425.335	76.9012
428.228	68.4483
431.121	56.4389
434.013	47.8688
436.906	46.7379
439.799	47.9863
442.691	54.6728
445.584	52.3613
448.477	51.9919
451.37	35.0117
454.262	8.05439
457.155	5.47662
460.048	1.963
462.94	0.648585
465.833	0.435293
468.726	2.3748
471.618	3.31039
474.511	1.36548
477.404	3.82634
480.297	9.46907
483.189	12.7794
486.082	16.2117
488.975	19.191
491.867	22.0316
494.76	26.5064
497.653	30.1611
500.546	35.5825
503.438	40.5389
506.331	51.2407
509.224	56.8953
512.116	59.1191
515.009	55.585
517.902	49.5026
520.794	38.9893
523.687	31.0773
526.58	22.9331
529.472	13.5833
532.365	10.2754
535.258	5.04355
538.151	1.6885
541.043	2.03006
543.936	0.378273
546.829	1.81345
549.721	0.262517
552.614	0.331329
555.507	0.710682
558.4	0.598776
561.292	0.120719
564.185	0.032377
567.078	1.37363
569.97	2.84651
572.863	0.360805
575.756	2.27194
578.649	1.55504
581.541	3.99265
584.434	9.44578
587.327	13.2736
590.219	17.3861
593.112	20.332
596.005	30.0263
598.898	34.1737
601.79	44.3017
604.683	55.4622
607.576	59.5036
610.468	58.3064
613.361	53.3317
616.254	42.6959
619.146	31.6638
622.039	16.8778
624.932	18.8329
627.824	26.88
630.717	34.1839
633.61	44.9391
636.503	47.8847
639.395	40.12
642.288	25.3783
645.181	12.2153
648.073	12.6228
650.966	24.7249
653.859	43.7885
656.751	70.3572
659.644	100.63
662.537	132.67
665.43	160.121
668.322	163.667
671.215	139.564
674.108	109.272
677	94.1603
679.893	80.8654
682.786	74.5071
685.679	63.6917
688.571	55.9596
691.464	47.388
694.357	33.6856
697.249	24.5164
700.142	10.9913
703.035	3.38801
705.928	1.17715
708.82	0.561985
711.713	1.26554
714.606	0.892259
717.498	0.867916
720.391	1.709
723.284	0.056586
726.177	0.846489
729.069	0.540663
731.962	0.747406
734.855	0.602928
737.747	0.199662
740.64	0.83992
743.533	1.67485
746.425	2.0816
749.318	2.11112
752.211	1.16241
755.104	3.61326
757.996	3.07424
760.889	4.46835
763.782	5.70476
766.674	4.57132
769.567	5.87578
772.46	3.61461
775.352	4.79101
778.245	3.7725
781.138	2.38203
784.03	5.05741
786.923	6.69174
789.816	3.18372
792.709	2.98086
795.601	2.41934
798.494	0.602546
801.387	1.08332
804.279	2.05489
807.172	3.72495
810.065	4.55026
812.957	0.49748
815.85	2.78383
818.743	1.64013
821.636	1.73023
824.528	2.88192
827.421	4.64576
830.314	2.31158
833.207	1.31496
836.099	2.24312
838.992	2.21052
841.885	2.73263
844.777	5.46606
847.67	2.0812
850.563	2.82264
853.455	1.68102
856.348	2.66005
859.241	0.741519
862.134	1.21531
865.026	0.651322
867.919	2.73745
870.812	2.52181
873.704	1.84139
876.597	0.731249
879.49	0.403497
882.382	0.347623
885.275	1.2442
888.168	0.24552
891.061	0.293788
893.953	0.729075
896.846	0.217553
899.739	2.86581
902.631	1.12551
905.524	0.258454
908.417	0.874936
911.309	0.219564
914.202	2.0103
917.095	1.45046
919.988	3.02969
922.88	0.88394
925.773	2.8426
928.666	2.83776
931.558	0.298824
934.451	1.82509
937.344	3.30278
940.236	1.68966
943.129	3.26592
946.022	3.32004
948.915	0.743314
951.807	1.11688
954.7	1.25695
957.593	2.52731
960.486	6.65883
963.378	3.59103
966.271	0.599142
969.164	1.91937
972.056	0.284531
974.949	2.90852
977.842	4.84885
980.734	1.7409
983.627	3.45204
986.52	3.77924
989.413	0.99375
992.305	0.512464
995.198	2.86332
998.091	3.35962
1000.98	4.17006
1003.88	4.23491
1006.77	1.29042
1009.66	2.41507
1012.55	1.89533
1015.45	3.26444
1018.34	2.49241
1021.23	4.37281
1024.12	2.93139
1027.02	0.390551
1029.91	0.39791
1032.8	0.996933
1035.7	1.76629
1038.59	1.26732
1041.48	0.212321
1044.37	3.35885
1047.27	0.975237
1050.16	2.58858
1053.05	1.57993
1055.94	4.12547
1058.84	2.21419
1061.73	1.98344
1064.62	2.26136
1067.52	1.88634
1070.41	2.05043
1073.3	1.42835
1076.19	2.79917
1079.09	0.385263
1081.98	0.267878
1084.87	1.24861
1087.76	4.02848
1090.66	1.96547
1093.55	0.374045
1096.44	0.858875
1099.34	2.17227
1102.23	2.67116
1105.12	0.819032
1108.01	1.47009
1110.91	2.31588
1113.8	4.86496
1116.69	1.129
1119.58	1.04973
1122.48	0.170067
1125.37	1.97015
1128.26	1.8785
1131.15	1.05632
1134.05	2.80816
1136.94	2.20293
1139.83	2.47404
1142.73	1.81187
1145.62	3.33685
1148.51	2.58798
1151.4	1.90661
1154.3	0.115731
1157.19	0.177207
1160.08	2.73358
1162.97	1.504
1165.87	2.1935
1168.76	1.64707
1171.65	1.6879
1174.55	2.20579
1177.44	0.530931
1180.33	5.91048
1183.22	2.77648
1186.12	1.8817
1189.01	0.109858
1191.9	1.1663
1194.79	2.88235
1197.69	2.75516
1200.58	3.12412
1203.47	0.780932
1206.37	6.68962
1209.26	6.04813
1212.15	6.48975
1215.04	3.52625
1217.94	1.75483
1220.83	3.00086
1223.72	4.03823
1226.61	2.8129
1229.51	2.11173
1232.4	0.998871
1235.29	1.07611
1238.18	0.595037
1241.08	1.41125
1243.97	3.59748
1246.86	1.76446
1249.76	2.00532
1252.65	0.403004
1255.54	0.669695
1258.43	3.11279
1261.33	1.97468
1264.22	2.98203
1267.11	5.43473
1270.01	3.74696
1272.9	6.20166
1275.79	2.44976
1278.68	2.98498
1281.58	0.083096
1284.47	1.20261
1287.36	2.10975
1290.25	3.53287
1293.15	2.1222
1296.04	1.7445
1298.93	0.480868
1301.82	1.74451
