Measurement: Raman, 780 nm, unoriented, Raman Data Processed
Mineral: Wyartite II
Rruff sample: R090061
Ideal chemistry: CaU^5+^(U^6+^O_2_)_2_O_4_(OH)3H_2_O
Locality: Shinkolobwe mine, Katanga, Congo
Source: William W. Pinch
Description: Elongated and striated platy translucent black crystals. This is the material known as the dehydrated phase of wyartite, sometimes known as wyartite II (Hawthorne et al, 2006)
Raman shift (cm-1)	intensity
91.8272	0
95.202	61.9643
98.5768	9.41171
101.952	46.0825
105.326	31.4083
108.701	111.292
112.076	152.507
115.451	230.282
118.826	310.763
122.201	261.06
125.575	215.693
128.95	250.368
132.325	311.929
135.7	450.854
139.075	608.45
142.449	637.673
145.824	582.894
149.199	623.405
152.574	761.446
155.949	808.542
159.323	458.181
162.698	329.46
166.073	323.765
169.448	214.297
172.823	70.7437
176.198	12.0149
179.572	6.18179
182.947	6.63828
186.322	2.14087
189.697	5.23358
193.072	24.1829
196.446	4.51736
199.821	13.1902
203.196	30.7247
206.571	11.2782
209.946	32.9841
213.321	29.3516
216.695	45.6394
220.07	34.5149
223.445	50.8387
226.82	38.5754
230.195	57.0645
233.569	17.9003
236.944	43.7717
240.319	37.8684
243.694	30.8522
247.069	18.4084
250.444	5.11374
253.818	16.4911
257.193	0.065643
260.568	0.239166
263.943	12.7694
267.318	15.8068
270.692	20.2518
274.067	25.643
277.442	41.4575
280.817	35.0305
284.192	78.3656
287.567	57.6299
290.941	112.951
294.316	152.468
297.691	178.509
301.066	172.367
304.441	222.918
307.815	260.664
311.19	252.19
314.565	248.72
317.94	217.347
321.315	232.033
324.69	243.924
328.064	285.512
331.439	310.786
334.814	320.586
338.189	283.197
341.564	231.935
344.938	204.485
348.313	124.288
351.688	96.7137
355.063	82.1342
358.438	48.5168
361.812	43.867
365.187	2.11801
368.562	17.832
371.937	26.9632
375.312	11.8011
378.687	18.5448
382.061	1.71045
385.436	4.19229
388.811	14.2975
392.186	23.0527
395.561	26.6567
398.935	47.7403
402.31	23.0946
405.685	70.4684
409.06	103.145
412.435	132.738
415.81	166.355
419.184	240.456
422.559	293.003
425.934	402.548
429.309	519.761
432.684	645.663
436.058	745.493
439.433	852.204
442.808	944.158
446.183	918.571
449.558	673.282
452.933	465.442
456.307	345.185
459.682	296.565
463.057	286.98
466.432	232.695
469.807	161.916
473.181	147.886
476.556	123.552
479.931	71.117
483.306	70.3767
486.681	25.1392
490.055	29.42
493.43	22.2787
496.805	26.38
500.18	15.6969
503.555	12.5579
506.93	0.385254
510.304	20.0699
513.679	3.03076
517.054	12.9503
520.429	20.9051
523.804	2.16611
527.178	45.0393
530.553	13.4215
533.928	14.6534
537.303	23.6739
540.678	3.40124
544.053	14.7335
547.427	11.388
550.802	15.1855
554.177	6.32854
557.552	45.227
560.927	17.6375
564.302	37.5473
567.676	1.92017
571.051	15.9637
574.426	12.9015
577.801	3.50447
581.176	19.9082
584.55	19.7463
587.925	35.9079
591.3	21.7864
594.675	6.06294
598.05	19.8287
601.424	26.2979
604.799	4.66688
608.174	34.1908
611.549	20.773
614.924	0.649338
618.298	6.82199
621.673	1.901
625.048	4.11923
628.423	1.98831
631.798	4.58379
635.173	11.3929
638.547	19.629
641.922	31.7609
645.297	27.9615
648.672	34.2164
652.047	44.0903
655.422	71.5713
658.796	59.759
662.171	75.7039
665.546	97.8481
668.921	147.397
672.296	183.668
675.67	218.166
679.045	300.344
682.42	371.754
685.795	508.16
689.17	693.226
692.544	934.049
695.919	1295.88
699.294	1638.21
702.669	2010.08
706.044	2263.67
709.419	2293.9
712.793	1784.4
716.168	1186.71
719.543	715.759
722.918	433.593
726.293	287.636
729.668	156.848
733.042	91.5249
736.417	42.0794
739.792	17.6672
743.167	5.74591
746.542	5.42636
749.916	12.7849
753.291	18.4448
756.666	39.0488
760.041	75.8353
763.416	257.749
766.79	478.051
770.165	717.828
773.54	1021.49
776.915	1392.07
780.29	1280.28
783.665	688.627
787.039	367.203
790.414	222.821
793.789	167.145
797.164	119.407
800.539	118.842
803.913	120.133
807.288	158.548
810.663	235.288
814.038	334.21
817.413	473.207
820.788	598.352
824.162	685.769
827.537	616.063
830.912	351.368
834.287	193.316
837.662	157.754
841.036	130.196
844.411	85.1977
847.786	46.9121
851.161	17.7697
854.536	26.2253
857.91	16.4652
861.285	7.04781
864.66	7.11836
868.035	4.52336
871.41	2.88431
874.784	4.11607
878.159	16.4849
881.534	19.63
884.909	16.217
888.284	31.2002
891.659	25.2089
895.033	39.6357
898.408	17.3505
901.783	24.1285
905.158	32.2675
908.533	24.4497
911.908	9.85164
915.282	28.474
918.657	18.651
922.032	32.4598
925.407	27.6619
928.782	25.8594
932.156	39.5636
935.531	51.3145
938.906	28.8971
942.281	22.4093
945.656	49.3664
949.03	7.506
952.405	4.59542
955.78	27.8841
959.155	25.0793
962.53	8.3157
965.905	24.778
969.279	12.6148
972.654	11.9944
976.029	21.1234
979.404	31.3415
982.779	5.64459
986.154	22.5593
989.528	23.9971
992.903	17.1952
996.278	13.2223
999.653	0.92469
1003.03	28.195
1006.4	5.88886
1009.78	23.9219
1013.15	10.1606
1016.53	39.9712
1019.9	38.4555
1023.28	36.4422
1026.65	18.5018
1030.03	37.8732
1033.4	2.54778
1036.78	14.4639
1040.15	28.3162
1043.53	11.0624
1046.9	18.5573
1050.28	7.95367
1053.65	16.7141
1057.03	4.99782
1060.4	35.5097
1063.77	6.79324
1067.15	0.612007
1070.52	9.27161
1073.9	9.47133
1077.27	5.61617
1080.65	18.7524
1084.02	11.0812
1087.4	30.5654
1090.77	34.8111
1094.15	28.3621
1097.52	44.2175
1100.9	26.4113
1104.27	7.16536
1107.65	13.8152
1111.02	4.56735
1114.4	0.337425
1117.77	11.6484
1121.15	17.8041
1124.52	13.8958
1127.9	10.0043
1131.27	11.8965
1134.64	16.0311
1138.02	0.771935
1141.39	5.17688
1144.77	26.8228
1148.14	15.8643
1151.52	16.5303
1154.89	14.8362
1158.27	21.0863
1161.64	25.5821
1165.02	23.588
1168.39	17.5
1171.77	22.1427
1175.14	21.2898
1178.52	25.9755
1181.89	14.8852
1185.27	11.7405
1188.64	35.7048
1192.02	49.576
1195.39	0.234703
1198.77	24.6549
1202.14	15.4677
1205.52	23.1768
1208.89	34.1114
1212.27	47.0646
1215.64	16.1252
1219.02	20.781
1222.39	14.0521
1225.77	23.6874
1229.14	20.5876
1232.52	26.2374
1235.89	17.2026
1239.27	25.7449
1242.64	25.0745
1246.01	16.009
1249.39	18.4568
1252.76	9.30424
1256.14	20.725
1259.51	50.3752
1262.89	31.0673
1266.26	43.2343
1269.64	13.4725
1273.01	2.25824
1276.39	0.787186
1279.76	17.4707
1283.14	29.1689
