Measurement: Raman, 532 nm, unoriented, Raman Data Processed
Mineral: Wyartite II
Rruff sample: R090061
Ideal chemistry: CaU^5+^(U^6+^O_2_)_2_O_4_(OH)3H_2_O
Locality: Shinkolobwe mine, Katanga, Congo
Source: William W. Pinch
Description: Elongated and striated platy translucent black crystals. This is the material known as the dehydrated phase of wyartite, sometimes known as wyartite II (Hawthorne et al, 2006)
Raman shift (cm-1)	intensity
113.291	0
116.666	131.781
120.041	81.6296
123.416	60.1147
126.79	73.3983
130.165	158.282
133.54	192.264
136.915	452.451
140.29	711.738
143.665	783.461
147.039	583.877
150.414	823.74
153.789	1253.83
157.164	1627.5
160.539	792.697
163.913	463.14
167.288	454.362
170.663	350.579
174.038	256.788
177.413	219.523
180.788	250.676
184.162	199.95
187.537	72.2984
190.912	170.1
194.287	109.97
197.662	30.9344
201.036	63.1313
204.411	123.602
207.786	72.3696
211.161	59.5813
214.536	34.3362
217.911	57.9172
221.285	42.2678
224.66	92.7266
228.035	196.13
231.41	126.697
234.785	147.191
238.159	100.261
241.534	81.1828
244.909	59.785
248.284	3.89886
251.659	27.2654
255.034	4.05316
258.408	82.5555
261.783	9.47192
265.158	30.1858
268.533	18.0367
271.908	1.38782
275.282	54.0974
278.657	86.2996
282.032	10.2775
285.407	214.609
288.782	110.478
292.156	196.815
295.531	274.447
298.906	431.893
302.281	469.585
305.656	566.672
309.031	761.025
312.405	709.765
315.78	571.855
319.155	410.598
322.53	406.735
325.905	344.608
329.279	415.272
332.654	377.897
336.029	448.862
339.404	397.323
342.779	327.419
346.154	301.879
349.528	228.847
352.903	117.255
356.278	78.3477
359.653	27.0143
363.028	47.7978
366.402	28.3477
369.777	34.5617
373.152	78.7055
376.527	10.7858
379.902	21.7906
383.276	11.1274
386.651	28.6809
390.026	61.6444
393.401	32.92
396.776	37.9874
400.151	178.23
403.525	99.5161
406.9	171.143
410.275	227.616
413.65	331.108
417.025	403.731
420.399	569.281
423.774	705.813
427.149	930.134
430.524	1213.7
433.899	1565.16
437.274	1871.57
440.648	2442.55
444.023	2866.39
447.398	2875.9
450.773	2223.64
454.148	1470.36
457.522	1133.51
460.897	1039.21
464.272	1099.34
467.647	921.165
471.022	676.832
474.397	625.11
477.771	449.266
481.146	295.92
484.521	243.14
487.896	116.624
491.271	92.8871
494.645	86.427
498.02	86.5492
501.395	38.8296
504.77	20.6182
508.145	1.97827
511.519	51.8215
514.894	2.79834
518.269	40.5878
521.644	65.8773
525.019	9.53217
528.394	115.31
531.768	25.4825
535.143	6.00134
538.518	74.0642
541.893	9.13135
545.268	55.9022
548.643	33.2026
552.017	59.0098
555.392	16.7709
558.767	130.643
562.142	51.0538
565.517	133.309
568.891	8.47827
572.266	50.8876
575.641	73.2001
579.016	63.2016
582.391	37.9317
585.765	101.147
589.14	116.674
592.515	73.4388
595.89	12.8391
599.265	32.3904
602.639	43.0904
606.014	60.9651
609.389	96.9751
612.764	9.80389
616.139	54.2744
619.514	13.4915
622.888	17.3008
626.263	79.6303
629.638	64.2546
633.013	58.387
636.388	19.6198
639.763	8.54797
643.137	44.5039
646.512	87.2825
649.887	88.5489
653.262	95.4835
656.637	177.196
660.011	214.115
663.386	201.157
666.761	243.865
670.136	432.284
673.511	401.904
676.885	679.381
680.26	808.199
683.635	1003.99
687.01	1274.17
690.385	1837.74
693.76	2470.37
697.134	3365.63
700.509	4622.48
703.884	6002.71
707.259	7245.16
710.634	7502.49
714.009	6130.88
717.383	3995.93
720.758	2431.13
724.133	1442.82
727.508	884.245
730.883	624.759
734.257	350.048
737.632	181.786
741.007	41.6235
744.382	29.8657
747.757	4.90747
751.131	24.88
754.506	16.416
757.881	18.7635
761.256	232.282
764.631	544.774
768.006	1244.08
771.38	2175.56
774.755	3665.77
778.13	5207.06
781.505	5054.89
784.88	2705.48
788.254	1262.67
791.629	722.979
795.004	462.636
798.379	306.452
801.754	184.417
805.129	150.615
808.503	45.8257
811.878	72.9864
815.253	107.585
818.628	163.932
822.003	214.727
825.377	155.823
828.752	152.552
832.127	129.461
835.502	79.7941
838.877	31.3824
842.251	40.2782
845.626	95.627
849.001	1.37109
852.376	14.0337
855.751	12.1084
859.125	46.0956
862.5	25.2593
865.875	26.3752
869.25	27.4302
872.625	47.4338
876	1.03095
879.375	4.4361
882.749	42.0176
886.124	7.05121
889.499	54.0889
892.874	63.45
896.249	23.3464
899.623	91.3899
902.998	143.925
906.373	69.062
909.748	52.9143
913.123	56.736
916.497	71.5862
919.872	33.4219
923.247	73.9296
926.622	46.7477
929.997	61.7009
933.371	70.9742
936.746	68.3749
940.121	163.994
943.496	145.692
946.871	23.199
950.246	23.6132
953.62	113.653
956.995	95.8831
960.37	41.8923
963.745	15.8151
967.12	83.2026
970.495	22.6173
973.869	118.533
977.244	53.8963
980.619	85.2496
983.994	68.3168
987.369	85.2764
990.743	81.1835
994.118	63.0958
997.493	47.7507
1000.87	49.598
1004.24	84.3967
1007.62	97.7522
1010.99	18.9735
1014.37	112.933
1017.74	76.1377
1021.12	18.6628
1024.49	97.4544
1027.87	124.338
1031.24	40.1724
1034.62	48.6253
1037.99	20.9186
1041.37	76.5706
1044.74	22.7244
1048.12	8.26831
1051.49	78.4674
1054.87	69.4487
1058.24	58.3888
1061.62	1.71185
1064.99	40.0831
1068.36	11.9764
1071.74	98.1454
1075.11	19.581
1078.49	13.1192
1081.86	61.1969
1085.24	47.8223
1088.61	83.615
1091.99	104.71
1095.36	81.2444
1098.74	144.8
1102.11	74.0696
1105.49	27.4293
1108.86	61.3359
1112.24	18.367
1115.61	40.9627
1118.99	49.2723
1122.36	65.9036
1125.74	53.6907
1129.11	53.0648
1132.49	0.523438
1135.86	52.4215
1139.23	48.1309
1142.61	33.0136
1145.98	140.237
1149.36	112.193
1152.73	11.6304
1156.11	30.1414
1159.48	117.276
1162.86	90.3782
1166.23	53.5085
1169.61	43.9538
1172.98	51.4593
1176.36	103.167
1179.73	68.8503
1183.11	54.3977
1186.48	69.4972
1189.86	65.5125
1193.23	86.7602
1196.61	31.1569
1199.98	9.76385
1203.36	19.9651
1206.73	146.606
1210.11	7.23163
1213.48	116.14
1216.86	60.2165
1220.23	23.6943
1223.61	15.0471
1226.98	55.2089
1230.36	101.842
1233.73	93.6025
1237.11	86.8294
1240.48	34.6135
1243.86	79.4546
1247.23	43.5504
1250.6	56.4192
1253.98	22.223
1257.35	99.0738
1260.73	61.4657
1264.1	48.0337
1267.48	42.1989
1270.85	9.01367
1274.23	87.2235
1277.6	124.691
1280.98	95.686
1284.35	99.2218
1287.73	55.4777
1291.1	8.02228
1294.48	34.6212
1297.85	105.765
1301.23	88.2091
