Measurement: Raman, 532 nm, unoriented, Raman Data Processed
Mineral: Xanthoconite
Rruff sample: R080013
Ideal chemistry: Ag_3_AsS_3_
Locality: Imiter mine, Djebel Sarhro, 20 km. from Quarzazate, Anti Atlas Mountains, Morocco
Source: William W. Pinch
Description: Brown to orange tabular crystals, in groups and singles, associated with red elongated prisms of proustite
Measured chemistry: Ag_2.54_Sb_0.05_As_1.03_S_3_
Raman shift (cm-1)	intensity
125.226	0
128.601	12.6423
131.976	33.0838
135.35	54.2567
138.725	46.0697
142.1	27.3291
145.475	17.7631
148.85	6.7488
152.225	1.20245
155.599	0.130447
158.974	0.610382
162.349	0.45343
165.724	0.053375
169.099	1.09999
172.473	4.30037
175.848	5.97916
179.223	9.93755
182.598	10.2752
185.973	9.06245
189.347	10.07
192.722	8.0556
196.097	6.21886
199.472	6.19345
202.847	4.51399
206.221	4.82803
209.596	3.92226
212.971	2.04398
216.346	1.32205
219.721	1.19154
223.096	0.553024
226.47	0.533417
229.845	0.871185
233.22	0.935333
236.595	1.11311
239.97	1.84355
243.345	0.756836
246.719	0.875092
250.094	0.727539
253.469	1.29016
256.844	0.178314
260.219	1.4214
263.593	0.740631
266.968	2.11446
270.343	2.23122
273.718	0.452286
277.093	3.16254
280.467	3.45683
283.842	5.06352
287.217	11.1827
290.592	17.6829
293.967	26.3305
297.342	35.2752
300.716	50.4265
304.091	67.3824
307.466	94.8002
310.841	132.027
314.216	183.902
317.591	242.752
320.965	304.546
324.34	377.62
327.715	463.287
331.09	536.582
334.464	525.374
337.839	412.047
341.214	278.204
344.589	195.898
347.964	170.705
351.339	187.336
354.713	248.812
358.088	359.005
361.463	486.925
364.838	617.108
368.213	804.153
371.587	1064.53
374.962	1324.81
378.337	1171.9
381.712	616.513
385.087	281.626
388.462	143.217
391.836	76.5347
395.211	43.9604
398.586	26.5449
401.961	14.3863
405.336	9.1442
408.711	2.66992
412.085	0.084244
415.46	0.311752
418.835	1.98368
422.21	2.17373
425.585	2.30305
428.959	2.24804
432.334	0.964058
435.709	0.269196
439.084	0.240089
442.459	3.4246
445.834	2.75441
449.208	3.98947
452.583	4.58984
455.958	6.36561
459.333	6.1741
462.708	6.82835
466.082	9.49209
469.457	8.89848
472.832	9.58865
476.207	8.99975
479.582	8.96587
482.957	10.2604
486.331	8.11438
489.706	6.65782
493.081	7.22799
496.456	6.10422
499.83	6.14687
503.205	5.73122
506.58	5.04637
509.955	3.86599
513.33	3.09307
516.705	3.92422
520.079	2.78691
523.454	3.08695
526.829	2.86925
530.204	3.45861
533.579	1.83744
536.953	2.47348
540.328	3.33756
543.703	2.56262
547.078	1.59655
550.453	3.36456
553.828	1.58456
557.202	2.40022
560.577	1.98008
563.952	2.27546
567.327	1.67365
570.702	1.90983
574.077	1.94621
577.451	1.87995
580.826	1.35955
584.201	0.433388
587.576	1.73356
590.951	0.370453
594.325	0.380646
597.7	0.09304
601.075	0.26796
604.45	0.001717
607.825	0.663795
611.199	1.10261
614.574	0.107536
617.949	0.91433
621.324	1.90607
624.699	2.95753
628.073	3.90042
631.448	5.33912
634.823	6.22356
638.198	9.3718
641.573	11.1386
644.948	12.4142
648.322	14.7734
651.697	15.5259
655.072	16.4809
658.447	15.4277
661.822	13.2807
665.197	13.4916
668.571	11.2016
671.946	10.861
675.321	7.8326
678.696	8.09084
682.071	6.84808
685.445	6.60375
688.82	5.63554
692.195	6.13995
695.57	5.60982
698.945	4.0242
702.319	3.21951
705.694	3.91323
709.069	4.25053
712.444	2.96276
715.819	2.24922
719.193	3.17179
722.568	4.53549
725.943	5.79899
729.318	6.57736
732.693	7.95528
736.068	7.67392
739.442	7.82197
742.817	8.12896
746.192	8.00104
749.567	5.45877
752.942	4.28982
756.317	2.4997
759.691	1.28505
763.066	1.02835
766.441	0.063545
769.816	0.530636
773.191	0.284885
776.565	0.261124
779.94	0.04221
783.315	0.560699
786.69	0.627003
790.065	0.213879
793.439	1.4008
796.814	0.808861
800.189	0.385567
803.564	0.937798
806.939	0.899342
810.314	1.52651
813.688	0.407822
817.063	1.32435
820.438	1.84448
823.813	1.24737
827.188	1.3996
830.562	1.70529
833.937	1.70557
837.312	1.01389
840.687	1.47616
844.062	1.19193
847.437	1.65398
850.811	0.399433
854.186	0.365101
857.561	0.740665
860.936	0.490643
864.311	0.744049
867.686	0.014988
871.06	0.855061
874.435	0.938354
877.81	1.02751
881.185	1.80643
884.56	0.663204
887.934	0.978703
891.309	0.680428
894.684	0.72036
898.059	1.3581
901.434	1.34468
904.808	1.7258
908.183	0.597286
911.558	0.850792
914.933	0.965614
918.308	0.710133
921.683	0.468956
925.057	1.02567
928.432	0.035336
931.807	0.317867
935.182	0.392532
938.557	0.399876
941.932	0.691578
945.306	0.507256
948.681	0.496136
952.056	0.152004
955.431	0.137875
958.806	0.504063
962.18	0.922169
965.555	0.042274
968.93	0.824638
972.305	0.487026
975.68	0.188553
979.054	0.331505
982.429	0.971279
985.804	0.99131
989.179	1.12811
992.554	1.50839
995.928	0.518322
999.303	1.35714
1002.68	0.644787
1006.05	0.368351
1009.43	0.216797
1012.8	1.466
1016.18	0.37505
1019.55	1.51659
1022.93	1.4787
1026.3	1.05463
1029.68	0.533077
1033.05	0.649376
1036.43	0.619175
1039.8	0.776329
1043.18	0.950829
1046.55	0.871773
1049.93	0.327946
1053.3	0.393486
1056.67	0.635521
1060.05	0.27644
1063.42	0.983578
1066.8	0.543697
1070.17	0.433456
1073.55	0.704659
1076.92	0.716133
1080.3	0.828091
1083.67	0.846119
1087.05	0.607426
1090.42	0.642315
1093.8	0.000984
1097.17	0.834713
1100.55	0.332855
1103.92	1.3302
1107.3	0.132946
1110.67	1.00207
1114.05	0.690502
1117.42	1.00594
1120.8	1.876
1124.17	1.50529
1127.55	0.555122
1130.92	0.998138
1134.3	0.454418
1137.67	0.69978
1141.05	0.994514
1144.42	0.923939
1147.8	0.1478
1151.17	0.163593
1154.55	0.627159
1157.92	0.999939
1161.29	0.295906
1164.67	1.3806
1168.04	0.626884
1171.42	0.762196
1174.79	1.09643
1178.17	0.268536
1181.54	1.28302
1184.92	0.396366
1188.29	0.886604
1191.67	1.06654
1195.04	0.34483
1198.42	0.683903
1201.79	1.47749
1205.17	0.283978
1208.54	0.193203
1211.92	0.497063
1215.29	1.06749
1218.67	1.02564
1222.04	0.76112
1225.42	0.454796
1228.79	0.958935
1232.17	1.56024
1235.54	1.27891
1238.91	0.018944
1242.29	1.07936
1245.66	0.75349
1249.04	0.433979
1252.41	1.16332
1255.79	0.845734
1259.16	0.963245
1262.54	0.743862
1265.91	1.25104
1269.29	0.528904
1272.66	1.07222
1276.04	1.42463
1279.41	0.761765
1282.79	0.790104
1286.16	0.110226
1289.54	0.545792
1292.91	0.863651
1296.29	0.734337
1299.66	0.813778
1303.04	0.228233
