Measurement: Raman, 532 nm, unoriented, Raman Data Processed
Mineral: Xanthoconite
Rruff sample: R070746
Ideal chemistry: Ag_3_AsS_3_
Locality: Freiberg District, Erzgebirge, Saxony, Germany
Source: Michael Scott
Description: Light brown to yellow bladed crystals, associated with red prismatic proustite
Measured chemistry: Ag_3.00_As_1.00_S_3.00_
Raman shift (cm-1)	intensity
127.841	0
130.734	164.114
133.627	496.131
136.519	905.771
139.412	846.107
142.305	526.512
145.197	297.455
148.09	120.643
150.983	10.4917
153.875	15.2424
156.768	27.0469
159.661	27.6482
162.554	20.9517
165.446	31.7576
168.339	95.9475
171.232	189.363
174.124	284.679
177.017	379.956
179.91	425.234
182.803	534.614
185.695	569.17
188.588	604.964
191.481	575.608
194.373	491.131
197.266	393.726
200.159	275.472
203.051	211.842
205.944	203.832
208.837	106.751
211.729	64.5952
214.622	22.2124
217.515	44.8569
220.407	15.1821
223.3	44.6043
226.193	63.5701
229.086	92.791
231.978	161.56
234.871	151.253
237.764	201.342
240.656	224.027
243.549	187.715
246.442	185.477
249.334	167.408
252.227	157.809
255.12	97.6499
258.013	36.6848
260.905	30.0708
263.798	11.5837
266.691	54.2068
269.583	8.46606
272.476	41.2302
275.369	42.7849
278.262	63.8411
281.154	0.15625
284.047	20.7493
286.94	35.6895
289.832	126.633
292.725	154.072
295.618	251.571
298.51	357.597
301.403	441.707
304.296	590.99
307.188	776.904
310.081	913.493
312.974	1164.84
315.867	1556.62
318.759	2115.33
321.652	3004.4
324.545	3985.08
327.437	5151.65
330.33	6537.36
333.223	7952.37
336.115	8174.69
339.008	7016.38
341.901	4879.35
344.794	3181.43
347.686	2416.2
350.579	2318.25
353.472	2601.22
356.364	3351.33
359.257	4745.79
362.15	7232.14
365.043	10404.6
367.935	13267
370.828	17696.6
373.721	23932
376.613	29487.8
379.506	23995.8
382.399	13589.4
385.291	6682.21
388.184	3540.97
391.077	2074.36
393.969	1282.07
396.862	859.296
399.755	544.706
402.648	363.412
405.54	212.818
408.433	143.593
411.326	30.9734
414.218	35.47
417.111	10.3572
420.004	0.929932
422.897	37.6475
425.789	38.2534
428.682	39.102
431.575	38.9534
434.467	19.0127
437.36	1.87378
440.253	23.1393
443.145	29.142
446.038	36.0986
448.931	37.2688
451.824	34.9008
454.716	74.2683
457.609	36.6112
460.502	44.3588
463.394	62.1158
466.287	95.4125
469.18	42.0199
472.072	76.5051
474.965	89.3744
477.858	103.842
480.75	88.0942
483.643	122.483
486.536	110.846
489.429	74.8339
492.321	83.9365
495.214	62.8948
498.107	73.0132
500.999	50.4647
503.892	54.9911
506.785	35.9988
509.678	33.9344
512.57	59.2308
515.463	48.4327
518.356	29.0028
521.248	51.0099
524.141	13.2113
527.034	34.295
529.926	7.59412
532.819	22.0217
535.712	38.5952
538.604	52.9977
541.497	36.7355
544.39	37.4207
547.283	25.9276
550.175	15.019
553.068	58.6991
555.961	53.1967
558.853	74.0178
561.746	71.2492
564.639	42.8074
567.531	34.0356
570.424	59.7955
573.317	33.3389
576.21	75.3501
579.102	39.3364
581.995	23.574
584.888	7.48328
587.78	9.49768
590.673	4.75317
593.566	1.79919
596.458	12.9951
599.351	5.57263
602.244	3.7804
605.136	7.8606
608.029	7.72705
610.922	2.25391
613.815	1.66772
616.707	9.14893
619.6	9.20752
622.493	1.09497
625.385	12.8069
628.278	2.05823
631.171	10.8053
634.063	18.5579
636.956	60.8906
639.849	62.8547
642.742	53.6773
645.634	93.8959
648.527	143.543
651.42	170.697
654.312	161.397
657.205	178.535
660.098	183.274
662.99	190.417
665.883	181.593
668.776	179.532
671.669	177.686
674.561	166.882
677.454	156.406
680.347	120.754
683.239	139.796
686.132	85.3157
689.025	101.433
691.918	118.707
694.81	96.8163
697.703	90.7401
700.596	52.0459
703.488	75.5325
706.381	54.9254
709.274	84.4496
712.166	79.8312
715.059	73.6361
717.952	70.6094
720.845	81.5133
723.737	73.3685
726.63	104.222
729.523	90.4218
732.415	110.813
735.308	133.587
738.201	141.891
741.093	123.183
743.986	162.576
746.879	140.406
749.771	116.394
752.664	118.061
755.557	88.7701
758.45	9.39612
761.342	65.1571
764.235	24.1019
767.128	18.0809
770.02	26.4475
772.913	36.9443
775.806	22.2581
778.698	41.7358
781.591	9.38098
784.484	41.5853
787.377	13.7543
790.269	5.34277
793.162	4.26001
796.055	11.9225
798.947	36.1423
801.84	9.30359
804.733	37.6382
807.625	21.4847
810.518	35.4059
813.411	26.1242
816.304	49.3989
819.196	28.2189
822.089	39.3447
824.982	27.6078
827.874	25.9845
830.767	37.6118
833.66	59.7445
836.552	12.3043
839.445	35.5215
842.338	21.67
845.231	29.0817
848.123	34.3267
851.016	37.5032
853.909	23.2441
856.801	50.7982
859.694	17.4014
862.587	7.60669
865.479	31.3213
868.372	16.6179
871.265	6.07385
874.158	16.979
877.05	38.5482
879.943	23.1107
882.836	5.12158
885.728	39.1453
888.621	6.97998
891.514	38.8984
894.406	23.8296
897.299	34.0892
900.192	43.1645
903.085	0.372437
905.977	45.5707
908.87	7.42688
911.763	65.1078
914.655	20.1769
917.548	5.39917
920.441	13.7841
923.333	42.4319
926.226	16.145
929.119	30.281
932.011	18.775
934.904	43.0309
937.797	28.2935
940.69	37.8767
943.582	0.790405
946.475	13.0239
949.368	8.22119
952.26	31.6179
955.153	5.97607
958.046	60.8164
960.938	34.6702
963.831	32.901
966.724	44.0276
969.617	56.4665
972.509	37.2076
975.402	44.7605
978.295	34.2716
981.187	2.30908
984.08	5.69495
986.973	34.7819
989.865	19.7578
992.758	3.26648
995.651	68.7659
998.544	34.5293
1001.44	68.8695
1004.33	62.1412
1007.22	22.7707
1010.11	14.9819
1013.01	0.841431
1015.9	52.9979
1018.79	55.938
1021.68	51.7345
1024.58	42.5427
1027.47	45.2332
1030.36	36.5101
1033.26	34.4027
1036.15	34.585
1039.04	29.9392
1041.93	48.4348
1044.83	47.4489
1047.72	39.3816
1050.61	18.2078
1053.51	38.5106
1056.4	21.9745
1059.29	42.1157
1062.18	31.8163
1065.08	29.7119
1067.97	110.463
1070.86	16.0991
1073.75	22.1666
1076.65	65.438
1079.54	52.4083
1082.43	38.3966
1085.33	14.5424
1088.22	27.1509
1091.11	30.4143
1094	34.082
1096.89	22.2854
1099.79	4.15369
1102.68	43.6956
1105.57	19.2733
1108.47	27.7311
1111.36	17.9788
1114.25	56.0188
1117.14	22.533
1120.04	25.217
1122.93	40.4346
1125.82	44.083
1128.71	20.1963
1131.61	54.5343
1134.5	40.6501
1137.39	42.0151
1140.29	25.3662
1143.18	47.7906
1146.07	19.0464
1148.96	14.5668
1151.86	16.5912
1154.75	33.4972
1157.64	0.71582
1160.54	24.8842
1163.43	28.2355
1166.32	15.6741
1169.21	23.861
1172.11	15.1462
1175	15.886
1177.89	9.07703
1180.78	36.8962
1183.68	53.1794
1186.57	37.5585
1189.46	47.1967
1192.35	58.1574
1195.25	33.7183
1198.14	10.6479
1201.03	21.1161
1203.92	1.24426
1206.82	40.898
1209.71	25.6052
1212.6	40.7719
1215.5	59.8982
1218.39	39.2891
1221.28	46.3051
1224.17	44.9434
1227.07	8.82495
1229.96	6.00671
1232.85	14.2152
1235.74	18.4612
1238.64	23.5005
1241.53	44.7375
1244.42	26.1194
1247.32	24.9152
1250.21	48.2266
1253.1	31.2773
1255.99	40.5796
1258.89	49.5352
1261.78	5.37866
1264.67	51.9919
1267.57	40.7014
1270.46	23.7473
1273.35	18.0273
1276.24	18.5458
1279.13	11.221
1282.03	0.259155
