Measurement: Raman, 780 nm, unoriented, Raman Data Processed
Mineral: Xanthoconite
Rruff sample: R070746
Ideal chemistry: Ag_3_AsS_3_
Locality: Freiberg District, Erzgebirge, Saxony, Germany
Source: Michael Scott
Description: Light brown to yellow bladed crystals, associated with red prismatic proustite
Measured chemistry: Ag_3.00_As_1.00_S_3.00_
Raman shift (cm-1)	intensity
127.237	0
130.13	257.271
133.023	550.155
135.915	895.462
138.808	1113.98
141.701	795.498
144.594	515.451
147.486	178.838
150.379	18.3965
153.272	8.70215
156.164	17.542
159.057	7.89551
161.95	26.8164
164.842	144.602
167.735	219.339
170.628	316.177
173.52	550.805
176.413	691.177
179.306	864.146
182.199	1026.47
185.091	1135.09
187.984	1166.35
190.877	1114.99
193.769	1085.6
196.662	984.517
199.555	776.927
202.447	677.952
205.34	609.344
208.233	495.748
211.126	435.129
214.018	399.083
216.911	389.318
219.804	333.837
222.696	259.814
225.589	306.004
228.482	392.297
231.375	407.578
234.267	437.998
237.16	607.11
240.053	593.268
242.945	677.785
245.838	711.834
248.731	544.894
251.623	499.801
254.516	364.833
257.409	253.983
260.301	163.774
263.194	44.6846
266.087	12.9253
268.98	58.0718
271.872	75.1977
274.765	109.16
277.658	60.9883
280.55	29.4541
283.443	45.5508
286.336	48.3618
289.228	66.585
292.121	96.5981
295.014	166.689
297.907	218.211
300.799	190.879
303.692	233.251
306.585	367.789
309.477	536.528
312.37	771.996
315.263	1219.24
318.156	1733.38
321.048	2703.85
323.941	3984.81
326.834	5612.21
329.726	7490.38
332.619	9244.77
335.512	10328.2
338.404	9502.91
341.297	7110.53
344.19	4690.78
347.082	3256.73
349.975	2679.24
352.868	2874.74
355.761	3497.34
358.653	4497.66
361.546	6756.16
364.439	10292.7
367.331	15689.1
370.224	21415
373.117	28690.7
376.01	38398.1
378.902	30095.7
381.795	22350
384.688	11624.4
387.58	5856.14
390.473	3243.06
393.366	1999.78
396.258	1250.42
399.151	745.513
402.044	422.91
404.937	278.239
407.829	129.125
410.722	106.186
413.615	25.2407
416.507	27.0151
419.4	3.82178
422.293	60.6943
425.185	45.9058
428.078	44.2412
430.971	13.4468
433.863	63.0386
436.756	25.9507
439.649	13.7339
442.542	22.6362
445.434	82.2915
448.327	79.4424
451.22	55.5874
454.112	75.5215
457.005	107.898
459.898	64.4165
462.791	120.267
465.683	105.637
468.576	100.653
471.469	133.978
474.361	133.299
477.254	158.251
480.147	169.32
483.039	131.899
485.932	122.469
488.825	159.665
491.717	81.0312
494.61	94.3086
497.503	61.3154
500.396	68.4302
503.288	52.0508
506.181	42.4517
509.074	40.9868
511.966	49.8413
514.859	63.0781
517.752	78.1636
520.644	55.5923
523.537	51.4429
526.43	37.0776
529.323	32.6543
532.215	71.0308
535.108	43.7886
538.001	12.4424
540.893	3.55615
543.786	52.5889
546.679	26.8613
549.572	53.6694
552.464	40.9717
555.357	98.2891
558.25	71.5493
561.142	42.831
564.035	40.8052
566.928	76.8535
569.82	73.3569
572.713	127.506
575.606	63.9141
578.499	81.3447
581.391	56.6777
584.284	80.5308
587.177	26.0493
590.069	56.5786
592.962	67.1733
595.855	5.26562
598.747	94.9853
601.64	48.0093
604.533	41.8127
607.426	6.95288
610.318	12.7815
613.211	5.27588
616.104	19.5737
618.996	15.1162
621.889	21.8567
624.782	28.4419
627.674	45.3833
630.567	35.3227
633.46	53.4431
636.352	4.97778
639.245	15.2293
642.138	38.7842
645.031	53.1687
647.923	81.803
650.816	70.1484
653.709	56.7732
656.601	80.2039
659.494	20.8115
662.387	61.4377
665.279	117.34
668.172	95.175
671.065	74.6777
673.958	81.5928
676.85	80.0273
679.743	51.4243
682.636	57.096
685.528	36.6409
688.421	48.0496
691.314	60.1863
694.207	36.2126
697.099	68.3503
699.992	59.2744
702.885	24.281
705.777	31.9414
708.67	40.3113
711.563	31.5735
714.455	52.1567
717.348	17.875
720.241	12.5979
723.134	15.5581
726.026	21.2524
728.919	29.1401
731.812	31.2788
734.704	22.9563
737.597	55.385
740.49	19.0144
743.382	17.3562
746.275	55.439
749.168	7.75024
752.061	25.6389
754.953	54.7981
757.846	38.3101
760.739	43.2688
763.631	42.4946
766.524	36.395
769.417	37.0725
772.309	68.679
775.202	31.2495
778.095	34.9509
780.987	31.2966
783.88	10.9568
786.773	5.56494
789.666	30.7573
792.558	49.614
795.451	39.7429
798.344	53.0227
801.236	33.7532
804.129	0.232422
807.022	27.0127
809.914	27.8447
812.807	8.85767
815.7	78.4934
818.593	14.801
821.485	49.585
824.378	31.7654
827.271	37.1533
830.163	22.9565
833.056	6.15967
835.949	63.9448
838.841	18.8264
841.734	61.3728
844.627	79.4756
847.519	29.1907
850.412	60.7344
853.305	43.3086
856.198	43.4297
859.09	5.91894
861.983	40.1636
864.876	43.3728
867.768	0.814697
870.661	2.38159
873.554	46.5234
876.447	43.5195
879.339	3.05591
882.232	3.92749
885.125	46.2515
888.017	9.3728
890.91	18.9187
893.803	53.1113
896.695	10.9722
899.588	52.9924
902.481	71.7693
905.374	16.6143
908.266	27.0305
911.159	39.6128
914.052	28.8061
916.944	12.3882
919.837	29.5923
922.73	4.14746
925.622	45.2952
928.515	15.4287
931.408	50.5503
934.301	44.3701
937.193	43.346
940.086	50.8279
942.979	23.9297
945.871	39.418
948.764	41.2983
951.657	44.9253
954.549	27.8213
957.442	13.6826
960.335	16.0242
963.227	2.99292
966.12	20.155
969.013	30.8686
971.906	42.3596
974.798	29.7725
977.691	27.9141
980.584	17.844
983.476	32.6914
986.369	22.2158
989.262	9.20288
992.154	48.7805
995.047	18.0542
997.94	40.3625
1000.83	49.8069
1003.73	8.3396
1006.62	33.9485
1009.51	49.1555
1012.4	28.7678
1015.3	31.3992
1018.19	27.7822
1021.08	47.1028
1023.97	44.2434
1026.87	73.8889
1029.76	50.1418
1032.65	16.8577
1035.55	35.2004
1038.44	29.8428
1041.33	55.0906
1044.22	14.1736
1047.12	48.2437
1050.01	59.5017
1052.9	52.4529
1055.79	94.0676
1058.69	30.6743
1061.58	67.7249
1064.47	32.2844
1067.37	50.1592
1070.26	72.6143
1073.15	77.0264
1076.04	21.6592
1078.94	20.4673
1081.83	36.6255
1084.72	9.2915
1087.61	65.908
1090.51	21.1609
1093.4	61.0591
1096.29	60.7937
1099.18	30.999
1102.08	21.4983
1104.97	31.3562
1107.86	53.8899
1110.76	33.6309
1113.65	33.0591
1116.54	28.8091
1119.43	20.1636
1122.33	58.5254
1125.22	43.9133
1128.11	2.42993
1131	33.9827
1133.9	69.3831
1136.79	41.7383
1139.68	38.6257
1142.58	59.1367
1145.47	48.1624
1148.36	63.0286
1151.25	50.6055
1154.15	57.769
1157.04	56.7134
1159.93	16.2922
1162.82	0.567871
1165.72	12.335
1168.61	17.8662
1171.5	49.4688
1174.39	44.7
1177.29	43.8835
1180.18	35.3777
1183.07	85.1252
1185.96	7.41894
1188.86	52.8523
1191.75	35.4109
1194.64	50.2957
1197.54	22.1831
1200.43	65.7881
1203.32	42.3293
1206.21	36.2082
1209.11	22.1848
1212	36.752
1214.89	44.2185
1217.79	13.5071
1220.68	38.134
1223.57	42.1384
1226.46	4.90967
1229.36	34.7471
1232.25	62.9658
1235.14	26.6123
1238.03	59.4482
1240.93	39.6235
1243.82	25.4285
1246.71	27.354
1249.61	21.3574
1252.5	41.6157
1255.39	67.5933
1258.28	27.53
