Measurement: Raman, 780 nm, unoriented, Raman Data Processed
Mineral: Xanthoconite
Rruff sample: R080013
Ideal chemistry: Ag_3_AsS_3_
Locality: Imiter mine, Djebel Sarhro, 20 km. from Quarzazate, Anti Atlas Mountains, Morocco
Source: William W. Pinch
Description: Brown to orange tabular crystals, in groups and singles, associated with red elongated prisms of proustite
Measured chemistry: Ag_2.54_Sb_0.05_As_1.03_S_3_
Raman shift (cm-1)	intensity
126.33	0
129.705	9.68758
133.079	29.8755
136.454	49.026
139.829	40.3258
143.204	18.9498
146.579	7.85177
149.953	1.5855
153.328	0.856293
156.703	0.510231
160.078	2.40566
163.453	7.33496
166.828	12.795
170.202	17.7235
173.577	25.2976
176.952	30.8811
180.327	36.7269
183.702	39.9023
187.077	43.3991
190.451	38.1058
193.826	30.5591
197.201	24.4682
200.576	17.9749
203.951	13.375
207.325	9.85133
210.7	7.99387
214.075	2.83288
217.45	2.40833
220.825	0.26062
224.199	1.3541
227.574	2.04829
230.949	3.99841
234.324	4.73367
237.699	4.59222
241.073	7.57916
244.448	6.22004
247.823	6.62797
251.198	4.85254
254.573	1.93674
257.948	1.0238
261.322	0.371323
264.697	1.25056
268.072	1.9174
271.447	1.09891
274.822	0.325249
278.197	0.725243
281.571	0.127579
284.946	0.325859
288.321	0.071053
291.696	1.49873
295.071	5.43421
298.445	9.32939
301.82	17.2477
305.195	29.1203
308.57	49.5847
311.945	80.9166
315.32	125.239
318.694	165.865
322.069	206.671
325.444	255.932
328.819	323.822
332.194	391.14
335.568	390.858
338.943	312.781
342.318	205.229
345.693	135.833
349.068	122.591
352.442	147.976
355.817	225.728
359.192	331.768
362.567	410.916
365.942	516.082
369.317	653.154
372.691	845.755
376.066	1042.47
379.441	831.566
382.816	376.367
386.191	163.085
389.565	82.1115
392.94	44.2811
396.315	25.1405
399.69	13.9979
403.065	7.71002
406.44	3.3586
409.814	1.23135
413.189	0.321835
416.564	0.706501
419.939	0.774727
423.314	1.21002
426.688	1.58764
430.063	0.583921
433.438	0.309845
436.813	0.520533
440.188	0.714569
443.562	1.39979
446.937	2.47265
450.312	2.30103
453.687	3.75745
457.062	3.5785
460.437	3.65956
463.811	3.92336
467.186	4.65783
470.561	4.43545
473.936	4.51448
477.311	4.21958
480.685	3.96766
484.06	3.27244
487.435	2.9582
490.81	2.25182
494.185	2.38318
497.56	1.77718
500.934	1.49742
504.309	1.53988
507.684	1.55438
511.059	1.38748
514.434	1.13487
517.808	0.993319
521.183	1.30817
524.558	1.12247
527.933	0.973743
531.308	0.786725
534.683	0.972685
538.057	0.863802
541.432	1.33617
544.807	0.726298
548.182	0.472956
551.557	1.09848
554.932	1.08397
558.306	1.03244
561.681	0.851974
565.056	0.950616
568.431	0.852848
571.806	0.753489
575.18	1.4265
578.555	1.26459
581.93	0.655952
585.305	0.708048
588.68	0.512033
592.054	0.231975
595.429	0.378078
598.804	0.210448
602.179	0.045298
605.554	0.313439
608.928	0.5955
612.303	0.078422
615.678	0.577763
619.053	0.132362
622.428	0.005198
625.803	0.129709
629.177	0.343969
632.552	0.319137
635.927	0.441263
639.302	0.594135
642.677	1.1507
646.052	1.10211
649.426	1.4984
652.801	2.25197
656.176	1.78979
659.551	2.28422
662.926	2.15548
666.3	2.37583
669.675	1.74375
673.05	1.62345
676.425	1.39097
679.8	1.33532
683.174	1.29887
686.549	0.681067
689.924	1.01614
693.299	1.05779
696.674	0.499303
700.049	0.993857
703.423	0.582103
706.798	0.799183
710.173	0.347462
713.548	0.863594
716.923	0.40504
720.298	0.478098
723.672	0.79934
727.047	0.687719
730.422	0.690276
733.797	0.955127
737.172	1.06404
740.546	1.07326
743.921	0.781402
747.296	1.06489
750.671	0.94171
754.046	0.676979
757.42	0.262477
760.795	0.616847
764.17	0.25637
767.545	0.064039
770.92	0.152508
774.295	0.059175
777.669	0.064831
781.044	0.045258
784.419	0.305857
787.794	0.163184
791.169	0.061072
794.543	0.27494
797.918	0.307999
801.293	0.267053
804.668	0.520794
808.043	0.65617
811.418	0.448483
814.792	0.453794
818.167	0.298538
821.542	0.244077
824.917	0.187879
828.292	0.560779
831.666	0.402612
835.041	0.524992
838.416	0.693933
841.791	0.241906
845.166	0.691143
848.54	0.266741
851.915	0.343492
855.29	0.574779
858.665	0.490054
862.04	0.540763
865.415	0.653121
868.789	0.503156
872.164	0.380122
875.539	0.10461
878.914	0.064521
882.289	0.236203
885.663	0.199181
889.038	0.23003
892.413	0.134874
895.788	0.077264
899.163	0.19378
902.538	0.131383
905.912	0.143459
909.287	0.341302
912.662	0.217416
916.037	0.141279
919.412	0.577322
922.786	0.601368
926.161	0.495615
929.536	0.055209
932.911	0.279203
936.286	0.133086
939.66	0.141524
943.035	0.296726
946.41	0.132978
949.785	0.431817
953.16	0.231529
956.535	0.257395
959.909	0.199422
963.284	0.181511
966.659	0.137464
970.034	0.429887
973.409	0.179888
976.784	0.386462
980.158	0.062353
983.533	0.528086
986.908	0.329274
990.283	0.261957
993.658	0.012135
997.032	0.548471
1000.41	0.499905
1003.78	0.556865
1007.16	0.253546
1010.53	0.523296
1013.91	0.612877
1017.28	0.420578
1020.66	0.138906
1024.03	0.559011
1027.41	0.002151
1030.78	0.122561
1034.15	0.469572
1037.53	0.272348
1040.9	0.629093
1044.28	0.126946
1047.65	0.457949
1051.03	0.194875
1054.4	0.334204
1057.78	0.446602
1061.15	0.097138
1064.53	0.349661
1067.9	0.220373
1071.28	0.383184
1074.65	0.428954
1078.03	0.145141
1081.4	0.608815
1084.78	0.145841
1088.15	0.633397
1091.53	0.567368
1094.9	0.658474
1098.28	0.371056
1101.65	0.198927
1105.03	0.268821
1108.4	0.198322
1111.78	0.518232
1115.15	0.412239
1118.53	0.344457
1121.9	0.021435
1125.28	0.025064
1128.65	0.285223
1132.03	0.316651
1135.4	0.165514
1138.78	0.109173
1142.15	0.289035
1145.52	0.346033
1148.9	0.417234
1152.27	0.771131
1155.65	0.442146
1159.02	0.171804
1162.4	0.248518
1165.77	0.091532
1169.15	0.505206
1172.52	0.397434
1175.9	0.298757
1179.27	0.576965
1182.65	0.235719
1186.02	0.612679
1189.4	0.47708
1192.77	0.383622
1196.15	0.210968
1199.52	0.291853
1202.9	0.342005
1206.27	0.560788
1209.65	0.580667
1213.02	0.206882
1216.4	0.248978
1219.77	0.387191
1223.14	0.576968
1226.52	0.446525
1229.89	0.107705
1233.27	0.18012
1236.64	0.000507
1240.02	0.048307
1243.39	0.293857
1246.77	0.339214
1250.14	0.776464
1253.52	0.628017
1256.89	0.538848
1260.27	0.525551
1263.64	0.629632
1267.02	0.476313
1270.39	0.467032
1273.77	0.29243
1277.14	0.294805
1280.52	0.664937
1283.89	0.382553
1287.27	0.322466
