Measurement: Raman, 532 nm, unoriented, Raman Data Processed
Mineral: Xenotime-(Y)
Rruff sample: R060428
Ideal chemistry: YPO_4_
Locality: Zagi Mountain, near Hammedabad, Khaffor Dehri, North-West Frontier Province, Pakistan
Source: Herb Obodda
Description: Brown prismatic crystals
Measured chemistry: (Y_0.85_Dy_0.11_Yb_0.04_)_Î£=1_P_1.00_O_4_
Raman shift (cm-1)	intensity
37.633	0
41.008	8.451
44.383	2.502
47.758	42.621
51.133	97.427
54.507	181.323
57.882	281.05
61.257	341.569
64.632	375.088
68.007	534.698
71.382	797.427
74.756	757.571
78.131	610.585
81.506	446.394
84.881	436.378
88.256	285.401
91.631	120.317
95.005	29.607
98.38	10.142
101.755	6.904
105.13	0.622
108.505	105.63
111.879	330.504
115.254	656.255
118.629	888.893
122.004	881.236
125.379	802.548
128.753	987.268
132.128	1210.48
135.503	1417.69
138.878	1640.01
142.253	1787.03
145.628	2090.05
149.002	2375.69
152.377	2456.68
155.752	2243
159.127	1996.5
162.502	2317.59
165.876	1992.79
169.251	1915.23
172.626	1668.59
176.001	1091.46
179.376	413.275
182.751	11.322
186.125	45.687
189.5	78.502
192.875	9.526
196.25	63.584
199.625	23.795
202.999	6.579
206.374	77.371
209.749	754.408
213.124	1999.48
216.499	4086.18
219.874	7622.33
223.249	12249
226.623	17030.5
229.998	20405.6
233.373	20598.1
236.748	19901.8
240.123	21050.9
243.497	24395.6
246.872	27153.2
250.247	26554.4
253.622	21973.8
256.997	15477.5
260.371	9431.57
263.746	4950.34
267.121	2133.35
270.496	422.329
273.871	150.819
277.246	115.709
280.62	362.296
283.995	2901.35
287.37	7134.22
290.745	12459.7
294.12	19544.7
297.495	22555.7
300.869	22282.7
304.244	25799.9
307.619	29387.2
310.994	29698.1
314.369	26734.3
317.743	21261.6
321.118	15001.6
324.493	9866.27
327.868	6020.69
331.243	3322.93
334.617	1291.36
337.992	315.396
341.367	20.745
344.742	166.621
348.117	205.769
351.492	131.284
354.866	270.281
358.241	1665.68
361.616	4804.61
364.991	9246.92
368.366	14746.3
371.741	21493.6
375.115	20680.7
378.49	10305.7
381.865	3119.53
385.24	1085.9
388.615	2556.4
391.989	7353.64
395.364	15972.1
398.739	27909.5
402.114	43668.5
405.489	56091.2
408.864	47590.6
412.238	37187.6
415.613	47586
418.988	75092.6
422.363	123210
425.738	133086
429.112	64402
432.487	22607.7
435.862	7300.51
439.237	643.342
442.612	93.487
445.987	694.167
449.361	109.582
452.736	749.827
456.111	3443.92
459.486	5124.4
462.861	9228.95
466.236	20137.1
469.61	35405.3
472.985	51886.8
476.36	60714.5
479.735	49097.6
483.11	31617.8
486.484	21570.2
489.859	17492.2
493.234	19983
496.609	28093.7
499.984	40890.6
503.358	59267.5
506.733	82853.9
510.108	108986
513.483	135823
516.858	152650
520.233	145208
523.607	113332
526.982	76452
530.357	50768.5
533.732	35414.7
537.107	23432.4
540.482	12629.2
543.856	4595.57
547.231	708.74
550.606	42.565
553.981	333.464
557.356	753.617
560.73	573.012
564.105	854.579
567.48	1227.31
570.855	1756.95
574.23	274.889
577.604	343.856
580.979	69.333
584.354	2058.48
587.729	9259.55
591.104	20768.3
594.479	35498.4
597.854	51270.3
601.228	62830
604.603	66760.6
607.978	61578
611.353	50558.3
614.727	38162.3
618.102	27416.6
621.477	18876.9
624.852	12425.1
628.227	7447.48
631.602	4432
634.976	2564.26
638.351	2615.49
641.726	5315.32
645.101	10801.4
648.476	18557.8
651.851	27978.3
655.225	36856.8
658.6	44736.5
661.975	49871.7
665.35	49712.3
668.725	41512.2
672.099	29866.8
675.474	20272.4
678.849	13702.8
682.224	9667.83
685.599	7587.56
688.974	6496.85
692.348	5872.11
695.723	4391.79
699.098	1948.35
702.473	45.677
705.848	137.583
709.222	485.885
712.597	85.715
715.972	338.499
719.347	110.587
722.722	87.731
726.097	68.099
729.471	116.871
732.846	328.722
736.221	1034.61
739.596	1947.46
742.971	2505.59
746.346	2339.73
749.72	1999.71
753.095	1860.76
756.47	2072.77
759.845	2353.21
763.22	2413.55
766.594	2362.47
769.969	2272.63
773.344	2070.36
776.719	1699.3
780.094	1483.47
783.469	1194.15
786.843	867.887
790.218	568.91
793.593	591.151
796.968	636.708
800.343	729.477
803.717	757.463
807.092	792.756
810.467	690.196
813.842	652.824
817.217	464.887
820.592	356.19
823.966	242.074
827.341	144.135
830.716	82.917
834.091	1.348
837.466	20.278
840.841	10.434
844.215	15.402
847.59	4.418
850.965	4.076
854.34	0.666
857.714	2.171
861.089	5.067
864.464	108.308
867.839	241.045
871.214	446.473
874.589	749.887
877.963	1033.07
881.338	956.631
884.713	860.377
888.088	1012.08
891.463	1518.16
894.838	1736.35
898.212	1936.76
901.587	1630.78
904.962	1328.3
908.337	1252.88
911.712	1511.6
915.086	1927.76
918.461	1940.1
921.836	1335.25
925.211	856.334
928.586	411.451
931.961	122.086
935.335	7.799
938.71	26.461
942.085	20.471
945.46	4.365
948.835	12.634
952.209	10.753
955.584	9.834
958.959	2.47
962.334	33.899
965.709	3.238
969.084	51.626
972.458	50.368
975.833	181.738
979.208	459.789
982.583	933.044
985.958	2050.62
989.333	5511.94
992.707	10301.1
996.082	19760.4
999.457	53095
1002.83	7033.68
1006.21	2349.49
1009.58	2251.63
1012.96	3241.8
1016.33	4790.45
1019.71	7618.19
1023.08	13563.5
1026.46	7897.42
1029.83	5853.97
1033.2	5733.15
1036.58	5675.97
1039.95	5552.43
1043.33	5664.71
1046.7	7082.37
1050.08	9492.29
1053.45	14486.1
1056.83	24296.8
1060.2	6792.71
1063.58	2292.06
1066.95	1073.3
1070.33	564.988
1073.7	308.191
1077.08	214.057
1080.45	15.215
1083.83	24.322
1087.2	9.472
1090.58	14.956
1093.95	10.514
1097.33	2.97
1100.7	36.282
1104.08	13.483
1107.45	10.258
1110.83	2.781
1114.2	6.836
1117.58	54.265
1120.95	134.637
1124.33	214.943
1127.7	316.052
1131.08	412.063
1134.45	531.116
1137.83	688.655
1141.2	787.887
1144.57	901.76
1147.95	966.31
1151.32	1032.85
1154.7	1282.31
1158.07	1759.71
1161.45	992.211
1164.82	888.821
1168.2	788.514
1171.57	684.26
1174.95	602.419
1178.32	466.333
1181.7	405.387
1185.07	338.698
1188.45	235.475
1191.82	200.815
1195.2	157.34
1198.57	95.065
1201.95	174.477
1205.32	65.844
1208.7	0.699
1212.07	24.241
1215.44	65.2
1218.82	1.679
1222.19	11.441
1225.57	1.847
1228.94	6.813
1232.32	1.065
1235.69	4.96
1239.07	4.651
1242.44	2.057
1245.82	17.602
1249.19	10.5
1252.57	31.748
1255.94	65.448
1259.32	54.344
1262.69	87.974
1266.07	0.749
1269.44	17.301
1272.82	71.459
1276.19	47.28
1279.57	18.228
1282.94	164.939
1286.32	9.061
1289.69	50.173
1293.07	21.4
1296.44	24.685
1299.82	9.619
