Measurement: Raman, 532 nm, unoriented, Raman Data Processed
Mineral: Xenotime-(Y)
Rruff sample: R120080
Ideal chemistry: YPO_4_
Locality: Clora May mine, Chaffee County, Colorado, USA
Source: Rudy Bolona
Description: Yellow-brown massive
Raman shift (cm-1)	intensity
215.843	0
218.735	0.707977
221.628	2.57623
224.521	5.61633
227.413	12.7027
230.306	16.1531
233.199	22.0382
236.091	25.2517
238.984	24.2687
241.877	25.4533
244.769	20.1669
247.662	22.9734
250.555	20.2615
253.448	17.0297
256.34	10.9697
259.233	7.91394
262.126	2.51685
265.018	0.433105
267.911	0.661072
270.804	0.420715
273.697	2.75244
276.589	6.94672
279.482	14.0161
282.375	20.1583
285.267	27.4796
288.16	35.5794
291.053	48.1053
293.945	57.4116
296.838	57.9396
299.731	54.3601
302.623	44.2956
305.516	32.3374
308.409	27.3513
311.302	22.1163
314.194	17.4185
317.087	15.5553
319.98	11.0436
322.872	7.40582
325.765	0.061279
328.658	2.18677
331.55	4.74255
334.443	0.730652
337.336	2.716
340.229	3.91644
343.121	1.61694
346.014	0.722168
348.907	5.91559
351.799	19.2555
354.692	38.3087
357.585	55.2512
360.478	78.9794
363.37	101.469
366.263	139.096
369.156	171.914
372.048	204.876
374.941	204.41
377.834	179.002
380.726	149.067
383.619	128.039
386.512	124.681
389.404	127.667
392.297	129.911
395.19	133.334
398.083	144.59
400.975	150.553
403.868	156.179
406.761	158.037
409.653	156.294
412.546	150.73
415.439	160.554
418.332	188.159
421.224	231.26
424.117	280.711
427.01	261.219
429.902	171.505
432.795	88.2248
435.688	35.4634
438.58	5.57532
441.473	4.68018
444.366	8.56348
447.259	4.91357
450.151	6.91217
453.044	28.7521
455.937	51.6701
458.829	72.3232
461.722	81.0529
464.615	99.4213
467.507	135.032
470.4	189.667
473.293	241.854
476.185	278.721
479.078	265.431
481.971	217.138
484.864	157.812
487.756	115.06
490.649	89.9857
493.542	83.874
496.434	95.7067
499.327	115.055
502.22	147.474
505.113	188.526
508.005	237.903
510.898	291.386
513.791	338.275
516.683	365.616
519.576	360.194
522.469	319.613
525.361	253.39
528.254	191.31
531.147	131.377
534.04	87.2249
536.932	55.0803
539.825	31.1824
542.718	16.953
545.61	2.52893
548.503	4.47858
551.396	7.35083
554.288	9.9704
557.181	6.78339
560.074	2.49829
562.967	9.35614
565.859	23.2129
568.752	29.8956
571.645	35.7938
574.537	33.3214
577.43	32.7635
580.323	37.9232
583.216	38.8994
586.108	54.6919
589.001	81.0577
591.894	112.138
594.786	151.37
597.679	182.162
600.572	208.589
603.464	215.085
606.357	215.219
609.25	209.461
612.142	187.306
615.035	153.569
617.928	121.51
620.821	95.7284
623.713	70.6968
626.606	52.0618
629.499	40.2749
632.391	33.3864
635.284	35.7222
638.177	43.1947
641.069	55.7779
643.962	70.8658
646.855	90.7352
649.747	108.914
652.64	128.818
655.533	145.238
658.426	154.432
661.318	162.53
664.211	160.203
667.104	154.392
669.996	140.234
672.889	118.865
675.782	101.706
678.674	86.3103
681.567	76.5911
684.46	69.0876
687.353	64.6337
690.245	57.8052
693.138	54.1991
696.031	46.2675
698.923	37.0398
701.816	28.2547
704.709	17.3835
707.601	13.3795
710.494	10.1122
713.387	4.38995
716.28	0.579956
719.172	2.60394
722.065	2.06561
724.958	2.31262
727.85	0.832397
730.743	2.06042
733.636	0.173218
736.529	1.90454
739.421	2.66638
742.314	0.011475
745.207	1.23199
748.099	0.911804
750.992	3.23517
753.885	7.18701
756.777	9.32019
759.67	13.1639
762.563	13.8544
765.456	15.5701
768.348	16.1608
771.241	18.2283
774.134	19.9348
777.026	19.7423
779.919	20.059
782.812	17.1198
785.704	16.1895
788.597	16.6802
791.49	13.914
794.383	14.2101
797.275	10.4514
800.168	7.79776
803.061	7.80255
805.953	2.80173
808.846	7.63834
811.739	5.6402
814.631	6.51816
817.524	6.47009
820.417	9.04678
823.309	7.71579
826.202	7.32843
829.095	7.39722
831.988	7.1217
834.88	7.86996
837.773	6.64218
840.666	8.12106
843.558	7.05154
846.451	8.94284
849.344	8.47739
852.236	5.55444
855.129	5.9436
858.022	4.59412
860.915	4.16461
863.807	3.27728
866.7	0.188782
869.593	0.436615
872.485	1.50324
875.378	1.79004
878.271	1.34644
881.163	0.253693
884.056	1.81924
886.949	2.79205
889.842	4.1803
892.734	2.57401
895.627	1.79691
898.52	2.77145
901.412	1.30948
904.305	2.31091
907.198	1.27872
910.091	1.84485
912.983	4.08078
915.876	3.40295
918.769	3.04977
921.661	0.237854
924.554	3.38992
927.447	0.460907
930.339	1.32696
933.232	0.112701
936.125	1.76163
939.018	2.04718
941.91	0.088715
944.803	0.969818
947.696	1.56833
950.588	0.391266
953.481	1.22284
956.374	1.07742
959.266	1.15793
962.159	0.325531
965.052	2.49359
967.944	3.92654
970.837	5.85397
973.73	5.56589
976.623	8.1983
979.515	13.1807
982.408	17.9458
985.301	25.7106
988.193	40.4063
991.086	56.2601
993.979	83.2801
996.871	127.903
999.764	117.118
1002.66	52.1454
1005.55	33.8459
1008.44	26.6579
1011.34	28.8254
1014.23	30.9267
1017.12	36.3838
1020.01	44.4272
1022.91	50.8957
1025.8	49.9663
1028.69	46.9973
1031.58	44.3539
1034.48	45.9603
1037.37	45.1803
1040.26	43.5695
1043.15	45.8394
1046.05	48.9117
1048.94	57.0138
1051.83	68.3078
1054.73	94.3065
1057.62	85.1425
1060.51	45.3684
1063.4	27.3329
1066.3	18.005
1069.19	11.092
1072.08	11.1734
1074.97	4.82379
1077.87	2.25824
1080.76	2.02719
1083.65	1.96259
1086.55	1.06763
1089.44	1.0412
1092.33	1.20053
1095.22	0.340515
1098.12	1.2406
1101.01	1.6969
1103.9	0.127777
1106.79	1.54919
1109.69	0.021484
1112.58	3.74634
1115.47	0.034821
1118.37	1.79568
1121.26	2.50211
1124.15	0.586884
1127.04	1.6163
1129.94	3.52597
1132.83	2.03577
1135.72	2.12976
1138.61	2.28824
1141.51	4.98654
1144.4	4.66147
1147.29	4.6911
1150.18	4.65204
1153.08	6.10745
1155.97	5.47257
1158.86	4.25964
1161.76	4.38913
1164.65	5.89902
1167.54	3.99533
1170.43	2.43515
1173.33	3.60864
1176.22	2.63956
1179.11	1.3089
1182	0.472107
1184.9	3.57965
1187.79	3.58472
1190.68	2.66281
1193.58	1.8082
1196.47	1.36127
1199.36	3.67639
1202.25	2.33051
1205.15	3.77322
1208.04	3.2659
1210.93	4.47183
1213.82	3.63239
1216.72	3.76105
1219.61	2.50229
1222.5	2.13117
1225.39	2.75571
1228.29	2.9697
1231.18	0.979126
1234.07	0.214691
1236.97	0.247498
1239.86	0.237518
1242.75	1.36664
1245.64	1.09708
1248.54	0.544586
1251.43	3.69684
1254.32	1.56921
1257.21	2.79553
1260.11	1.89911
1263	0.923065
1265.89	1.95883
1268.79	5.40164
1271.68	2.78772
1274.57	0.985901
1277.46	1.49649
1280.36	1.19684
1283.25	1.09491
1286.14	0.345551
1289.03	1.80362
1291.93	4.4295
1294.82	1.25571
1297.71	1.05743
1300.61	1.34354
