Measurement: Raman, 532 nm, unoriented, Raman Data Processed
Mineral: Xenotime-(Y)
Rruff sample: R050178
Ideal chemistry: YPO_4_
Locality: Novo Horizonte, Bahia, Brazil
Source: Marcus Origlieri
Description: Brown crystal fragments
Measured chemistry: (Y_0.74_Dy_0.09_Gd_0.06_Er_0.04_Yb_0.02_Ho_0.01_Tb_0.01_Sm_0.01_Eu_0.01_)_Σ=1.00_(P_0.97_As_0.02_Si_0.01_)_Σ=1.00_O_4_
Raman shift (cm-1)	intensity
115.471	0
118.846	58.6855
122.22	148.763
125.595	199.438
128.97	315.192
132.345	538.92
135.72	645.37
139.094	700.23
142.469	694.935
145.844	691.946
149.219	764.072
152.594	809.424
155.968	888.748
159.343	915.554
162.718	861.072
166.093	817.696
169.468	761.773
172.843	679.126
176.217	594.189
179.592	388.764
182.967	178.575
186.342	105.77
189.717	26.8162
193.091	47.7991
196.466	52.3552
199.841	59.7334
203.216	34.6382
206.591	13.002
209.965	23.521
213.34	111.714
216.715	248.073
220.09	412.793
223.465	579.663
226.84	738.147
230.214	850.24
233.589	894.646
236.964	934.038
240.339	986.474
243.714	1072.27
247.089	1134.15
250.463	1151.97
253.838	1035.55
257.213	854.311
260.588	634.312
263.963	435.299
267.337	269.441
270.712	176.853
274.087	116.853
277.462	223.632
280.837	454.64
284.211	841.258
287.586	1308.21
290.961	1754.98
294.336	2134.68
297.711	1890.65
301.086	1480.39
304.46	1305.57
307.835	1257.68
311.21	1248.2
314.585	1268.41
317.96	1218.34
321.334	1078.21
324.709	787.514
328.084	476.037
331.459	234.667
334.834	2.896
338.209	155.666
341.583	210.31
344.958	160.43
348.333	105.074
351.708	641.043
355.083	1509.01
358.457	2694.15
361.832	4098.15
365.207	5869.01
368.582	8241.92
371.957	10556.3
375.332	10470.3
378.706	7452.76
382.081	4373.98
385.456	2578.63
388.831	1687.46
392.206	1186.69
395.58	1141.57
398.955	1492.79
402.33	2267
405.705	2848.38
409.08	2886.31
412.454	2695.98
415.829	3326.88
419.204	5081.32
422.579	7989.82
425.954	9734.87
429.329	6951.75
432.703	3391.9
436.078	1119.23
439.453	17.5547
442.828	414.989
446.203	226.238
449.577	490.163
452.952	2111.19
456.327	4255.34
459.702	5308.6
463.077	5558.84
466.452	7478.17
469.826	11071.2
473.201	15372
476.576	18131.7
479.951	16378.2
483.326	11801.2
486.7	7956.83
490.075	5769.59
493.45	4865.04
496.825	5065.45
500.2	5969.59
503.575	7536.18
506.949	9838.08
510.324	12531.5
513.699	15055.1
517.074	16227.4
520.448	15265.5
523.823	12118.2
527.198	8498.32
530.573	5626.83
533.948	3520.93
537.323	2011.76
540.697	837.974
544.072	39.2383
547.447	522.285
550.822	627.229
554.197	380.417
557.572	200.188
560.946	1211.11
564.321	2519.45
567.696	3684.84
571.071	4141.18
574.446	3777
577.82	3327.21
581.195	3162.41
584.57	3481.76
587.945	4732.4
591.32	6573.74
594.694	8770
598.069	10674.9
601.444	11965.2
604.819	12237.8
608.194	11787.9
611.569	10784.3
614.943	9480.14
618.318	7949.42
621.693	6351.8
625.068	4965.57
628.443	3816.78
631.817	3058.69
635.192	2814.69
638.567	3091.46
641.942	3798.1
645.317	4735.75
648.692	5691.77
652.066	6493.64
655.441	6914.61
658.816	7287.39
662.191	7258.21
665.566	6984.16
668.941	6088
672.315	4964.96
675.69	3821.69
679.065	2999.2
682.44	2324.46
685.815	1819.95
689.189	1513.44
692.564	1271.12
695.939	1022.33
699.314	647.955
702.689	354.16
706.063	122.811
709.438	33.374
712.813	100.405
716.188	125.522
719.563	155.963
722.938	110.013
726.312	105.964
729.687	136.389
733.062	106.327
736.437	0.044922
739.812	40.3603
743.186	137.692
746.561	208.818
749.936	273.94
753.311	378.704
756.686	486.864
760.061	599.099
763.435	739.091
766.81	826.073
770.185	873.878
773.56	908.566
776.935	887.798
780.309	827.29
783.684	735.787
787.059	609.202
790.434	462.032
793.809	354.948
797.183	271.207
800.558	240.171
803.933	198.475
807.308	169.151
810.683	184.42
814.058	173.871
817.432	215.659
820.807	232.169
824.182	266.8
827.557	270.841
830.932	291.037
834.307	308.63
837.681	301.466
841.056	322.124
844.431	292.26
847.806	260.519
851.181	220.078
854.555	207.975
857.93	171.963
861.305	136.548
864.68	107.733
868.055	71.9185
871.429	58.0881
874.804	24.6152
878.179	31.2686
881.554	34.9668
884.929	77.542
888.303	119.392
891.678	211.531
895.053	303.721
898.428	396.488
901.803	401.741
905.178	382.558
908.552	381.919
911.927	366.093
915.302	282.403
918.677	197.93
922.052	135.639
925.427	112.282
928.801	67.0037
932.176	57.5723
935.551	25.656
938.926	2.58935
942.301	5.56299
945.675	11.3682
949.05	29.0596
952.425	27.2461
955.8	7.70459
959.175	16.0981
962.549	5.77075
965.924	6.52295
969.299	21.7141
972.674	75.6523
976.049	142.66
979.423	246.51
982.798	445.178
986.173	885.464
989.548	1444.53
992.923	2447.57
996.298	5050.59
999.672	6716.19
1003.05	1924.56
1006.42	795.212
1009.8	595.593
1013.17	603.997
1016.55	731.812
1019.92	983.472
1023.3	1269.7
1026.67	1036.38
1030.05	812.717
1033.42	774.366
1036.8	786.442
1040.17	871.458
1043.55	1079.82
1046.92	1479.36
1050.3	2227.52
1053.67	4065.35
1057.04	5551.27
1060.42	2556.81
1063.79	1036.46
1067.17	515.532
1070.54	307.032
1073.92	184.474
1077.29	116.307
1080.67	78.1582
1084.04	51.9133
1087.42	40.0131
1090.79	15.2615
1094.17	12.6871
1097.54	3.10132
1100.92	5.75085
1104.29	0.702515
1107.67	16.8407
1111.04	2.49072
1114.42	10.5244
1117.79	9.77234
1121.17	20.7255
1124.54	6.55884
1127.91	15.2876
1131.29	13.6862
1134.66	17.9786
1138.04	36.0382
1141.41	44.608
1144.79	62.1095
1148.16	67.1639
1151.54	78.1479
1154.91	83.7433
1158.29	91.0288
1161.66	92.0137
1165.04	92.3742
1168.41	70.4319
1171.79	66.0227
1175.16	56.0181
1178.54	54.8346
1181.91	59.0054
1185.29	59.7446
1188.66	75.1439
1192.04	69.6664
1195.41	88.2831
1198.79	77.4043
1202.16	92.1244
1205.54	101.607
1208.91	90.0903
1212.29	83.923
1215.66	61.4211
1219.04	70.0869
1222.41	46.7664
1225.79	36.2424
1229.16	18.6804
1232.54	9.2251
1235.91	5.63733
1239.28	0.276733
1242.66	0.246399
1246.03	4.1131
1249.41	12.906
1252.78	8.57996
1256.16	16.8243
1259.53	17.434
1262.91	10.0961
1266.28	24.1002
1269.66	8.91083
1273.03	14.3699
1276.41	14.0132
1279.78	11.7057
1283.16	6.92285
1286.53	2.12763
1289.91	4.32532
