Measurement: Raman, 532 nm, unoriented, Raman Data Processed
Mineral: Xocomecatlite
Rruff sample: R070738
Ideal chemistry: Cu_3_TeO_4_(OH)_4_
Locality: Bambollita Mine (Oriental Mine), Moctezuma, Mun. de Moctezuma, Sonora, Mexico
Source: Michael Scott
Description: Green spherules
Raman shift (cm-1)	intensity
152.429	0
155.322	35.9785
158.214	68.4414
161.107	53.5508
164	13.0479
166.893	22.1562
169.785	64.6787
172.678	26.7637
175.571	82.4434
178.463	57.0918
181.356	245.714
184.249	616.336
187.142	708.591
190.034	552.566
192.927	827.726
195.82	1185.48
198.712	1532.17
201.605	2312.97
204.498	3037.61
207.39	3858.98
210.283	3432.95
213.176	2242.02
216.069	1301.73
218.961	786.965
221.854	481.877
224.747	461.18
227.639	456.491
230.532	531.326
233.425	574.318
236.317	693.34
239.21	782.475
242.103	938.708
244.995	882.24
247.888	857.394
250.781	714.963
253.674	792.285
256.566	838.696
259.459	949.942
262.352	1022.23
265.244	945.06
268.137	1136.58
271.03	1389.4
273.923	1615.11
276.815	1915.69
279.708	1497.51
282.601	937.746
285.493	514.185
288.386	142.704
291.279	132.164
294.171	22.1982
297.064	16.9922
299.957	43.8584
302.849	171.891
305.742	289.087
308.635	430.437
311.528	471.873
314.42	564.254
317.313	700.606
320.206	587.713
323.098	532.006
325.991	361.791
328.884	445.501
331.776	515.588
334.669	570.66
337.562	597.263
340.455	552.735
343.347	569.705
346.24	487.365
349.133	313.233
352.025	233.595
354.918	126.545
357.811	37.8027
360.704	1.22754
363.596	62.5791
366.489	39.5869
369.382	10.5205
372.274	79.8848
375.167	216.2
378.06	137.274
380.952	176.846
383.845	117.602
386.738	60.4482
389.63	78.708
392.523	14.3105
395.416	102.144
398.308	18.5908
401.201	10.791
404.094	64.7725
406.987	71.9394
409.879	50.4795
412.772	181.061
415.665	127.202
418.557	188.166
421.45	196.519
424.343	177.831
427.236	328.856
430.128	537.805
433.021	787.55
435.914	892.231
438.806	1138.16
441.699	1433.88
444.592	1852.84
447.484	2424.4
450.377	2752.44
453.27	3019.82
456.163	2941.43
459.055	2736.13
461.948	2674.74
464.841	2580.53
467.733	2618.27
470.626	2319.28
473.519	2059.05
476.411	1910.47
479.304	1660.54
482.197	1662.83
485.089	1765.83
487.982	1719.39
490.875	2029.11
493.768	2257.31
496.66	2600.49
499.553	3060.61
502.446	3423.39
505.338	3430.86
508.231	3261.32
511.124	2817.57
514.016	2369.06
516.909	1832.2
519.802	1332.51
522.695	989.261
525.587	709.968
528.48	508.424
531.373	332.737
534.265	229.638
537.158	131.835
540.051	6.57129
542.943	24.8535
545.836	57.4268
548.729	126.645
551.622	82.7949
554.514	139.121
557.407	130.222
560.3	40.5234
563.192	96.1631
566.085	76.0205
568.978	159.273
571.87	271.898
574.763	329.935
577.656	483.245
580.549	584.938
583.441	511.56
586.334	300.067
589.227	229.871
592.119	138.965
595.012	59.6162
597.905	172.968
600.798	351.863
603.69	591.32
606.583	922.076
609.476	1536.78
612.368	2221.56
615.261	2794.74
618.154	2569.91
621.046	1704.31
623.939	849.048
626.832	385.275
629.725	64.415
632.617	101.741
635.51	13.5381
638.403	144.311
641.295	180.547
644.188	473.813
647.081	712.438
649.973	1195.69
652.866	2089.76
655.759	2805.02
658.651	4133.03
661.544	6182.73
664.437	9529.76
667.33	14057.3
670.222	20141.3
673.115	27568.8
676.008	35404.5
678.9	37989.8
681.793	30889.8
684.686	19971.3
687.578	12662.1
690.471	8456.79
693.364	6023.69
696.256	4640.08
699.149	3608.93
702.042	3063.41
704.935	2582.61
707.827	2379.57
710.72	2011.58
713.613	1935.71
716.505	1705.5
719.398	1555.96
722.291	1394.05
725.183	1038.96
728.076	774.823
730.969	585.77
733.862	325.978
736.754	161.519
739.647	39.0322
742.54	27.166
745.432	10.4824
748.325	84.7978
751.218	34.1709
754.111	91.0166
757.003	21.5088
759.896	51.3486
762.789	52.9463
765.681	2.9541
768.574	43.1025
771.467	89.04
774.359	124.314
777.252	128.136
780.145	129.777
783.038	197.902
785.93	148.987
788.823	209.21
791.716	202.701
794.608	257.602
797.501	369.969
800.394	304.496
803.286	426.098
806.179	366.383
809.072	377.175
811.965	277.324
814.857	276.611
817.75	210.994
820.643	249.255
823.535	256.504
826.428	220.326
829.321	313.073
832.213	182.943
835.106	222.642
837.999	197.727
840.891	231.934
843.784	207.247
846.677	200.097
849.57	246.876
852.462	199.179
855.355	176.816
858.248	199.405
861.14	203.201
864.033	161.996
866.926	175.462
869.818	165.131
872.711	139.21
875.604	94.9678
878.497	123.52
881.389	98.5156
884.282	142.612
887.175	112.097
890.067	102.543
892.96	100.062
895.853	88.9014
898.745	13.5674
901.638	139.885
904.531	204.518
907.424	119.814
910.316	0.728516
913.209	14.956
916.102	3.24512
918.994	11.668
921.887	47.791
924.78	42.5986
927.673	30.6299
930.565	3.01367
933.458	50.3477
936.351	44.666
939.243	45.9336
942.136	16.1621
945.029	41.46
947.921	72.6123
950.814	139.681
953.707	52.7471
956.6	175.236
959.492	99.1533
962.385	93.6768
965.278	174.756
968.17	327.089
971.063	446.553
973.956	547.924
976.848	542.166
979.741	757.535
982.634	610.006
985.527	596.704
988.419	742.596
991.312	361.198
994.205	349.934
997.097	418.965
999.99	503.758
1002.88	487.812
1005.77	527.775
1008.67	568.084
1011.56	492.631
1014.45	458.576
1017.35	457.876
1020.24	344.005
1023.13	234.54
1026.02	234.263
1028.92	199.672
1031.81	202.102
1034.7	213.829
1037.6	212.257
1040.49	164.58
1043.38	118.261
1046.27	150.025
1049.17	31.7041
1052.06	10.0039
1054.95	39.249
1057.84	57.7969
1060.74	62.8574
1063.63	19.0742
1066.52	76.6074
1069.41	16.6016
1072.31	50.919
1075.2	18.6611
1078.09	116.05
1080.98	70.1269
1083.88	56.956
1086.77	17.9707
1089.66	3.2041
1092.56	2.49414
1095.45	16.1777
1098.34	64.0186
1101.23	36.2607
1104.13	0.03418
1107.02	71.1406
1109.91	44.4248
1112.81	37.0107
1115.7	68.1562
1118.59	35.5791
1121.48	11.7021
1124.38	72.1279
1127.27	111.677
1130.16	87.3438
1133.05	123.202
1135.95	204.504
1138.84	9.34863
1141.73	191.032
1144.62	181.321
1147.52	178.772
1150.41	170.576
1153.3	221.402
1156.2	160.106
1159.09	236.684
1161.98	109.265
1164.87	141.755
1167.77	203.717
1170.66	81.2373
1173.55	133.933
1176.44	104.241
1179.34	104.283
1182.23	101.914
1185.12	120.157
1188.02	136.343
1190.91	154.25
1193.8	97.2393
1196.69	39.956
1199.59	73.5791
1202.48	149.786
1205.37	140.062
1208.26	126.652
1211.16	13.374
1214.05	12.7568
1216.94	63.877
1219.84	6.89844
1222.73	18.874
1225.62	35.2559
1228.51	92.9951
1231.41	19.4062
1234.3	29.8809
1237.19	26.4385
1240.08	75.6103
1242.98	209.45
1245.87	8.84766
1248.76	248.478
1251.65	290.495
1254.55	104.423
1257.44	121.029
1260.33	59.8594
1263.23	76.457
1266.12	18.6963
1269.01	77.4062
1271.9	97.7939
1274.8	47.3672
1277.69	141.331
1280.58	33.4766
1283.47	13.709
1286.37	30.3105
1289.26	3.05273
1292.15	89.7666
1295.05	76.0693
1297.94	75.2578
1300.83	3.51367
