Measurement: Raman, 780 nm, unoriented, Raman Data Processed
Mineral: Xonotlite
Rruff sample: R120029
Ideal chemistry: Ca_6_Si_6_O_17_(OH)_2_
Locality: Kalahari manganese fields, Northern Cape Province, South Africa
Source: Donald Doell
Description: Colorless lathlike crystals
Raman shift (cm-1)	intensity
147.529	0
150.422	0.730103
153.315	10.143
156.207	31.6573
159.1	67.9205
161.993	112.001
164.885	133.577
167.778	59.6169
170.671	14.1773
173.563	1.79363
176.456	1.62338
179.349	3.2544
182.242	4.23426
185.134	13.1217
188.027	30.2698
190.92	36.0507
193.812	53.4038
196.705	67.8421
199.598	99.1568
202.49	138.789
205.383	146.552
208.276	104.676
211.168	57.4065
214.061	25.8427
216.954	15.1786
219.847	13.5235
222.739	20.4999
225.632	37.2709
228.525	64.7539
231.417	103.579
234.31	138.967
237.203	109.5
240.095	68.4597
242.988	39.5758
245.881	25.9196
248.774	23.4302
251.666	32.8653
254.559	40.8722
257.452	41.2586
260.344	48.9243
263.237	53.8636
266.13	49.9335
269.022	35.0832
271.915	25.7947
274.808	26.1251
277.701	26.352
280.593	21.5077
283.486	10.4583
286.379	1.03365
289.271	2.73262
292.164	1.78263
295.057	1.36706
297.95	0.873543
300.842	3.11426
303.735	9.729
306.628	17.096
309.52	17.7792
312.413	15.2554
315.306	17.0015
318.198	23.1469
321.091	36.1024
323.984	57.459
326.877	79.7582
329.769	108.21
332.662	134.266
335.555	130.423
338.447	102.421
341.34	71.7323
344.233	50.7043
347.125	36.0571
350.018	19.5427
352.911	9.21957
355.803	3.14694
358.696	0.687527
361.589	2.47836
364.482	2.65525
367.374	11.774
370.267	22.2016
373.16	24.8343
376.052	17.5539
378.945	12.6047
381.838	12.8253
384.731	22.2272
387.623	32.1573
390.516	46.5136
393.409	56.0768
396.301	39.7492
399.194	17.1196
402.087	6.5645
404.979	0.820776
407.872	2.42677
410.765	1.59814
413.658	2.03905
416.55	8.32247
419.443	10.4733
422.336	17.2087
425.228	9.49531
428.121	2.964
431.014	0.573776
433.906	0.97967
436.799	4.1298
439.692	10.794
442.584	22.8634
445.477	35.9026
448.37	35.4161
451.263	31.1873
454.155	34.4521
457.048	29.7439
459.941	22.51
462.833	21.0644
465.726	19.4385
468.619	10.8175
471.512	5.37243
474.404	8.34409
477.297	14.2159
480.19	24.8284
483.082	35.5916
485.975	22.6849
488.868	13.1286
491.76	6.19499
494.653	1.8086
497.546	2.98174
500.438	6.97181
503.331	7.67599
506.224	7.98853
509.117	4.59905
512.009	0.379557
514.902	0.267399
517.795	1.85399
520.687	0.25247
523.58	0.738364
526.473	1.13613
529.365	1.31657
532.258	1.43995
535.151	0.264554
538.044	3.08391
540.936	2.92884
543.829	1.76215
546.722	3.51854
549.614	2.60265
552.507	1.6282
555.4	3.56671
558.293	2.33247
561.185	2.5503
564.078	3.92777
566.971	7.34882
569.863	8.00557
572.756	10.8759
575.649	14.9849
578.541	22.57
581.434	36.5539
584.327	64.8256
587.22	118.958
590.112	211.759
593.005	361.694
595.898	421.429
598.79	222.765
601.683	97.9925
604.576	52.7107
607.468	30.6507
610.361	20.3935
613.254	14.8948
616.146	11.0565
619.039	12.2607
621.932	11.1237
624.825	13.7873
627.717	12.7679
630.61	13.9765
633.503	9.85145
636.395	6.57653
639.288	1.02142
642.181	0.109625
645.073	0.10681
647.966	1.3698
650.859	0.829065
653.752	0.282726
656.644	1.30785
659.537	0.34853
662.43	0.321601
665.322	2.4674
668.215	4.16546
671.108	6.32789
674	5.69065
676.893	11.4809
679.786	19.5019
682.679	33.4413
685.571	57.4897
688.464	101.915
691.357	176.136
694.249	280.493
697.142	320.566
700.035	192.65
702.928	90.6935
705.82	45.9862
708.713	24.5224
711.606	15.5334
714.498	9.29332
717.391	5.5258
720.284	3.11832
723.176	1.6217
726.069	2.9378
728.962	3.00615
731.855	5.27279
734.747	6.25829
737.64	3.53317
740.533	2.23827
743.425	1.9136
746.318	1.06964
749.211	0.241307
752.103	1.47827
754.996	0.487007
757.889	1.18569
760.782	1.53294
763.674	3.25175
766.567	3.48567
769.46	3.9105
772.352	7.00538
775.245	11.2055
778.138	14.7175
781.03	12.2515
783.923	5.3153
786.816	1.27279
789.708	1.94519
792.601	1.41443
795.494	1.62056
798.387	1.85136
801.279	1.56767
804.172	1.18053
807.065	2.13577
809.957	1.85424
812.85	2.64567
815.743	0.385549
818.635	1.70286
821.528	0.763052
824.421	1.33791
827.314	0.220756
830.206	0.739694
833.099	2.92025
835.992	1.39911
838.884	1.62765
841.777	1.21435
844.67	1.99994
847.562	0.855314
850.455	2.33085
853.348	2.44116
856.241	3.28049
859.133	1.50777
862.026	1.48395
864.919	1.07201
867.811	2.14278
870.704	1.97555
873.597	0.178612
876.49	4.0517
879.382	1.40221
882.275	0.462491
885.168	0.371502
888.06	1.90698
890.953	2.09612
893.846	0.669797
896.738	2.19824
899.631	0.785715
902.524	1.02289
905.417	0.748696
908.309	1.92598
911.202	1.22376
914.095	2.72835
916.987	1.04637
919.88	2.24825
922.773	6.1632
925.665	8.94819
928.558	16.9587
931.451	10.8821
934.343	4.01206
937.236	4.32684
940.129	6.80142
943.022	6.48809
945.914	8.35992
948.807	14.5981
951.7	31.8728
954.592	61.2493
957.485	124.801
960.378	255.217
963.27	391.123
966.163	184.461
969.056	61.657
971.949	27.872
974.841	15.9418
977.734	11.3669
980.627	9.16082
983.519	11.8016
986.412	3.60877
989.305	2.14217
992.197	0.07881
995.09	0.427663
997.983	0.521691
1000.88	1.20185
1003.77	0.919267
1006.66	3.42919
1009.55	7.93547
1012.45	19.3619
1015.34	41.5107
1018.23	57.7847
1021.12	23.635
1024.02	11.5432
1026.91	10.1867
1029.8	11.0664
1032.69	25.5567
1035.59	58.965
1038.48	131.923
1041.37	250.892
1044.27	156.911
1047.16	54.8244
1050.05	28.5778
1052.94	18.5383
1055.84	14.4242
1058.73	17.1477
1061.62	23.2308
1064.52	36.8823
1067.41	64.9471
1070.3	84.542
1073.19	64.6697
1076.09	37.5284
1078.98	26.9139
1081.87	19.9127
1084.76	12.8566
1087.66	6.33391
1090.55	4.24495
1093.44	1.74481
1096.34	1.5271
1099.23	1.73355
1102.12	0.007853
1105.01	0.84107
1107.91	0.284804
1110.8	1.06444
1113.69	2.30634
1116.58	1.34331
1119.48	1.37635
1122.37	1.66986
1125.26	0.369361
1128.15	1.73705
1131.05	1.41008
1133.94	1.20527
1136.83	1.17049
1139.72	0.97995
1142.62	0.054523
1145.51	1.20247
1148.4	0.229246
1151.3	0.733047
1154.19	0.150532
1157.08	1.94886
1159.97	1.76178
1162.87	2.58764
1165.76	4.32861
1168.65	0.92918
1171.55	1.43076
1174.44	5.73735
1177.33	1.58898
1180.22	3.83051
1183.12	0.898569
1186.01	4.72723
1188.9	4.64921
1191.79	5.07476
1194.69	3.90965
1197.58	4.72769
1200.47	2.01137
1203.37	4.64505
1206.26	3.2515
1209.15	3.25122
1212.04	2.36786
1214.93	2.86279
1217.83	4.32697
1220.72	3.632
1223.61	4.21246
1226.51	3.70602
1229.4	2.49337
1232.29	2.68424
1235.18	3.47265
1238.08	2.76789
1240.97	3.24728
1243.86	2.36408
1246.76	2.39967
1249.65	4.37057
1252.54	2.94514
1255.43	3.99571
1258.33	2.11228
1261.22	4.36882
1264.11	3.39814
1267	0.701246
1269.9	1.45569
1272.79	4.76805
1275.68	4.81094
1278.58	4.33918
1281.47	3.95558
1284.36	3.3058
