Measurement: Raman, 532 nm, unoriented, Raman Data Processed
Mineral: Xonotlite
Rruff sample: R120029
Ideal chemistry: Ca_6_Si_6_O_17_(OH)_2_
Locality: Kalahari manganese fields, Northern Cape Province, South Africa
Source: Donald Doell
Description: Colorless lathlike crystals
Raman shift (cm-1)	intensity
157.024	0
159.917	2.0484
162.81	3.53938
165.702	13.3245
168.595	9.99922
171.488	10.907
174.381	11.9621
177.273	24.2466
180.166	28.91
183.059	38.5022
185.951	52.4702
188.844	68.3385
191.737	77.6271
194.629	90.4036
197.522	106.51
200.415	139.469
203.308	172.323
206.2	175.081
209.093	137.331
211.986	91.4777
214.878	72.1693
217.771	58.6709
220.664	54.9565
223.556	56.9049
226.449	65.6585
229.342	81.8934
232.234	101.679
235.127	113.16
238.02	86.3031
240.913	59.0665
243.805	38.8178
246.698	25.8699
249.591	19.7983
252.483	21.5434
255.376	20.1033
258.269	27.6541
261.161	28.8745
264.054	31.9293
266.947	32.5746
269.84	21.93
272.732	19.1735
275.625	15.379
278.518	16.9027
281.41	14.3493
284.303	3.77081
287.196	2.47046
290.089	0.373291
292.981	0.299385
295.874	4.73272
298.767	2.13568
301.659	0.393463
304.552	3.898
307.445	8.61885
310.337	6.48946
313.23	7.86298
316.123	11.8092
319.015	18.4566
321.908	30.4538
324.801	39.9818
327.694	54.1954
330.586	71.7154
333.479	82.3238
336.372	76.6433
339.264	52.8831
342.157	36.318
345.05	26.3069
347.942	16.103
350.835	9.44017
353.728	0.89064
356.621	1.97736
359.513	0.589462
362.406	2.4707
365.299	3.59463
368.191	12.3399
371.084	28.6588
373.977	23.9388
376.87	13.1812
379.762	7.08724
382.655	2.45249
385.548	4.79219
388.44	11.2919
391.333	18.6638
394.226	22.0959
397.118	10.9217
400.011	7.26299
402.904	0.364723
405.796	0.947418
408.689	2.36053
411.582	4.42839
414.475	12.1126
417.367	21.4495
420.26	25.9192
423.153	31.2
426.045	18.6416
428.938	6.76817
431.831	5.07512
434.724	4.99479
437.616	10.01
440.509	18.7664
443.402	36.9808
446.294	45.6318
449.187	34.3501
452.08	24.1822
454.972	22.6865
457.865	16.5651
460.758	8.35769
463.651	4.77094
466.543	4.35487
469.436	0.205467
472.329	2.69435
475.221	5.83641
478.114	11.3572
481.007	22.0983
483.899	29.3738
486.792	12.1477
489.685	8.86629
492.577	4.71905
495.47	4.7054
498.363	5.2979
501.256	10.3399
504.148	15.6371
507.041	12.0622
509.934	6.40443
512.826	0.672409
515.719	0.531921
518.612	0.994064
521.505	0.110435
524.397	0.646942
527.29	1.89901
530.183	2.24249
533.075	1.79241
535.968	0.17852
538.861	2.84573
541.753	1.14056
544.646	3.92937
547.539	3.3624
550.432	3.56403
553.324	2.08803
556.217	2.9226
559.11	2.07323
562.002	0.526901
564.895	2.6598
567.788	5.91812
570.68	6.50231
573.573	8.93294
576.466	14.9333
579.359	22.5092
582.251	40.9494
585.144	65.968
588.037	104.519
590.929	173.566
593.822	280.061
596.715	293.477
599.607	146.826
602.5	66.1416
605.393	36.856
608.285	23.4778
611.178	18.4823
614.071	10.036
616.964	10.1649
619.856	11.1638
622.749	12.1052
625.642	11.7715
628.534	13.8053
631.427	10.3276
634.32	7.39761
637.212	8.25949
640.105	1.82007
642.998	1.05023
645.891	0.924362
648.783	0.787323
651.676	0.489594
654.569	2.6635
657.461	1.49545
660.354	2.4057
663.247	1.88467
666.139	5.05659
669.032	8.60461
671.925	6.57958
674.818	13.5616
677.71	18.0756
680.603	27.7601
683.496	45.9812
686.388	79.9674
689.281	124.873
692.174	204.471
695.067	315.372
697.959	325.723
700.852	182.189
703.745	87.232
706.637	46.3069
709.53	28.8885
712.423	16.6466
715.315	10.2623
718.208	7.28629
721.101	4.10574
723.994	1.77396
726.886	2.40294
729.779	5.49419
732.672	4.95322
735.564	5.20732
738.457	4.30069
741.35	1.20509
744.242	0.168411
747.135	0.029327
750.028	0.122131
752.92	0.063965
755.813	0.662857
758.706	2.23973
761.599	2.89301
764.491	2.39572
767.384	5.68709
770.277	7.90366
773.169	11.5915
776.062	15.8882
778.955	23.7758
781.847	15.9109
784.74	8.8669
787.633	3.23877
790.526	2.18286
793.418	1.28547
796.311	1.21342
799.204	0.838333
802.096	1.10855
804.989	1.13341
807.882	1.20265
810.774	0.682083
813.667	3.23123
816.56	3.09854
819.453	1.51851
822.345	0.536392
825.238	1.74965
828.131	2.47409
831.023	2.90573
833.916	0.124405
836.809	0.270782
839.702	3.16629
842.594	0.856293
845.487	1.86856
848.38	2.92346
851.272	0.016891
854.165	1.77235
857.058	2.71809
859.95	2.83293
862.843	2.75829
865.736	0.936218
868.629	2.57665
871.521	1.58336
874.414	2.35887
877.307	0.323334
880.199	0.408569
883.092	4.29651
885.985	2.92285
888.877	0.226059
891.77	1.52943
894.663	1.66274
897.556	3.59729
900.448	0.925781
903.341	1.72058
906.234	2.26956
909.126	1.28021
912.019	2.60768
914.912	2.89497
917.804	2.07205
920.697	3.7283
923.59	6.70361
926.482	7.12763
929.375	12.0906
932.268	8.93419
935.161	3.68613
938.053	0.773712
940.946	1.85677
943.839	3.54205
946.731	6.90501
949.624	14.3793
952.517	22.7996
955.409	43.815
958.302	81.803
961.195	159.625
964.088	229.225
966.98	98.5651
969.873	33.9428
972.766	14.4044
975.658	8.17917
978.551	6.71812
981.444	5.6241
984.337	6.84168
987.229	4.03149
990.122	2.51717
993.015	1.85608
995.907	0.713209
998.8	0.459152
1001.69	1.53181
1004.59	2.24907
1007.48	0.669052
1010.37	2.88226
1013.26	7.61893
1016.16	20.6255
1019.05	25.9985
1021.94	11.5877
1024.83	8.70137
1027.73	9.25662
1030.62	17.4726
1033.51	35.6996
1036.4	72.4915
1039.3	149.381
1042.19	260.813
1045.08	145.227
1047.98	55.7859
1050.87	27.0093
1053.76	24.2898
1056.65	20.8318
1059.55	22.8106
1062.44	36.9338
1065.33	56.5531
1068.22	88.796
1071.12	108.342
1074.01	81.1786
1076.9	49.2764
1079.8	35.4643
1082.69	25.8546
1085.58	14.2244
1088.47	8.22971
1091.37	6.45215
1094.26	1.02978
1097.15	1.07074
1100.04	0.150757
1102.94	0.745178
1105.83	2.03259
1108.72	2.50125
1111.62	3.30963
1114.51	3.77039
1117.4	3.16888
1120.29	2.34116
1123.19	3.26602
1126.08	2.78177
1128.97	1.26239
1131.86	0.405945
1134.76	2.17981
1137.65	1.96594
1140.54	3.01227
1143.43	4.04218
1146.33	3.56207
1149.22	1.69119
1152.11	2.33258
1155.01	5.00421
1157.9	2.92062
1160.79	2.33801
1163.68	0.106689
1166.58	0.364166
1169.47	6.4462
1172.36	0.086365
1175.26	6.52371
1178.15	1.99368
1181.04	2.48462
1183.93	1.50964
1186.83	5.44595
1189.72	3.71506
1192.61	0.821869
1195.5	3.41122
1198.4	2.83047
1201.29	3.91244
1204.18	5.52173
1207.07	6.70303
1209.97	5.08054
1212.86	7.00098
1215.75	0.412415
1218.64	3.68512
1221.54	4.621
1224.43	2.27985
1227.32	4.44391
1230.22	6.23441
1233.11	4.12363
1236	4.80594
1238.89	4.21344
1241.79	2.49136
1244.68	3.03723
1247.57	2.81574
1250.46	1.72491
1253.36	3.22052
1256.25	4.22656
1259.14	2.49814
1262.04	1.12329
1264.93	2.23093
1267.82	5.17953
1270.71	5.01694
1273.61	0.286133
1276.5	4.32367
1279.39	3.02264
1282.29	2.37112
1285.18	4.76828
1288.07	5.51587
1290.96	0.173553
1293.86	3.56589
1296.75	3.04819
1299.64	2.39246
1302.53	1.10608
