Measurement: Raman, 532 nm, unoriented, Raman Data Processed
Mineral: Yangite
Rruff sample: R090031
Ideal chemistry: Pb^2+^Mn^2+^Si_3_O_8_H_2_O
Locality: Kombat, Namibia
Source: William W. Pinch
Description: Colorless to pale brown bladed crystals associated with black massive melanotekite, R090032, and brown rhodochrosite. Sample is from the John Innes collection.
Measured chemistry: Pb_1.00_Mn_1.00_Si_3.00_O_8.00_Â·H_2_O
Raman shift (cm-1)	intensity
117.925	0
121.299	57.2926
124.674	320.402
128.049	728.034
131.424	155.693
134.799	21.5966
138.173	86.4156
141.548	225.129
144.923	239.244
148.298	170.177
151.673	188.797
155.048	249.149
158.422	172.808
161.797	195.942
165.172	147.799
168.547	21.4772
171.922	25.7967
175.297	30.2751
178.671	11.5671
182.046	169.735
185.421	439.332
188.796	340.722
192.171	97.3288
195.545	31.1637
198.92	79.3761
202.295	140.157
205.67	161.979
209.045	193.71
212.419	113.006
215.794	33.4348
219.169	79.0037
222.544	256.099
225.919	511.309
229.293	843.98
232.668	1318.6
236.043	1971.85
239.418	2534.76
242.793	2135.37
246.168	1313.5
249.542	974.268
252.917	1009.41
256.292	1321.37
259.667	1535.52
263.042	1039.93
266.416	623.749
269.791	515.585
273.166	578.08
276.541	753.881
279.916	867.08
283.291	617.525
286.665	270.202
290.04	89.107
293.415	13.556
296.79	19.1774
300.165	26.0478
303.539	13.0864
306.914	5.37338
310.289	43.5351
313.664	87.4453
317.039	152.883
320.414	234.104
323.788	314.133
327.163	363.455
330.538	452.818
333.913	684.143
337.288	1041.69
340.662	994.374
344.037	609.028
347.412	554.1
350.787	619.112
354.162	725.416
357.536	783.171
360.911	693.282
364.286	480.392
367.661	310.589
371.036	208.746
374.411	167.148
377.785	168.699
381.16	214.792
384.535	329.113
387.91	497.852
391.285	494.786
394.659	196.489
398.034	29.3046
401.409	26.3248
404.784	28.4908
408.159	12.3342
411.534	84.5779
414.908	194.712
418.283	378.315
421.658	627.425
425.033	741.192
428.408	523.746
431.783	322.767
435.157	267.932
438.532	254.785
441.907	263.84
445.282	254.494
448.657	172.136
452.031	101.62
455.406	78.2202
458.781	79.9249
462.156	98.3501
465.531	140.664
468.906	192.108
472.28	241.907
475.655	244.711
479.03	190.059
482.405	107.374
485.779	43.8031
489.154	8.13519
492.529	6.30917
495.904	9.41135
499.279	37.0102
502.654	90.0731
506.028	160.511
509.403	244.879
512.778	341.396
516.153	429.92
519.528	461.201
522.903	378.653
526.277	228.669
529.652	134.728
533.027	84.1713
536.402	51.9355
539.777	30.3911
543.151	18.191
546.526	5.62643
549.901	3.56253
553.276	2.78213
556.651	4.16473
560.025	4.78297
563.4	5.65547
566.775	2.98851
570.15	2.0313
573.525	0.479172
576.9	1.54921
580.274	6.33273
583.649	10.0017
587.024	12.8529
590.399	15.6165
593.774	20.4258
597.148	29.9047
600.523	37.2771
603.898	48.1617
607.273	71.4413
610.648	114.553
614.023	205.561
617.397	357.95
620.772	572.985
624.147	917.886
627.522	1331.33
630.897	1330.26
634.271	665.654
637.646	303.333
641.021	157.913
644.396	98.3335
647.771	60.5415
651.145	41.3742
654.52	26.6425
657.895	16.9179
661.27	9.33173
664.645	1.78845
668.02	2.43527
671.394	1.51502
674.769	1.67648
678.144	2.08829
681.519	7.03864
684.894	21.2975
688.269	36.1734
691.643	66.3515
695.018	101.308
698.393	154.088
701.768	184.29
705.143	166.458
708.517	119.996
711.892	81.2284
715.267	64.8039
718.642	68.8749
722.017	87.2097
725.391	122.968
728.766	170.568
732.141	199.837
735.516	154.641
738.891	79.8903
742.266	31.8818
745.64	10.7873
749.015	4.46219
752.39	1.53055
755.765	2.96365
759.14	1.92709
762.514	1.35672
765.889	5.92712
769.264	8.54697
772.639	11.5456
776.014	19.7832
779.389	38.5113
782.763	52.7276
786.138	83.3939
789.513	128.317
792.888	168.635
796.263	174.454
799.637	113.429
803.012	61.8831
806.387	41.4137
809.762	29.1295
813.137	21.443
816.511	14.7803
819.886	11.5053
823.261	10.9672
826.636	7.24997
830.011	4.40186
833.386	7.048
836.76	4.80844
840.135	6.32101
843.51	3.45526
846.885	1.43616
850.26	0.997162
853.635	1.15067
857.009	0.582947
860.384	2.05795
863.759	2.28586
867.134	2.46356
870.509	0.014069
873.883	4.7912
877.258	11.422
880.633	17.7903
884.008	30.3572
887.383	51.7919
890.757	86.1731
894.132	152.385
897.507	268.183
900.882	465.619
904.257	758.932
907.631	1176.6
911.006	1464.3
914.381	1216.37
917.756	975.178
921.131	1097.81
924.506	1242.71
927.88	803.715
931.255	360.744
934.63	166.79
938.005	83.2875
941.38	34.6274
944.755	10.7481
948.129	4.21747
951.504	12.3658
954.879	12.7386
958.254	2.30597
961.629	28.0101
965.003	69.4154
968.378	121.92
971.753	136.11
975.128	111.885
978.503	111.27
981.877	159.563
985.252	256.377
988.627	439.544
992.002	742.212
995.377	1218.45
998.751	1931.63
1002.13	2498.3
1005.5	2831.01
1008.88	3799.99
1012.25	4695.74
1015.63	3438.04
1019	1698.56
1022.38	856.51
1025.75	462.125
1029.12	271.067
1032.5	159.526
1035.88	94.9448
1039.25	48.113
1042.62	20.8301
1046	10.986
1049.37	25.9551
1052.75	39.9126
1056.12	89.1324
1059.5	124.847
1062.87	69.6262
1066.25	25.8433
1069.62	6.46234
1073	4.13678
1076.37	22.5977
1079.75	49.4752
1083.12	111.816
1086.5	194.863
1089.87	172.874
1093.25	63.5419
1096.62	16.2623
1100	2.66479
1103.37	4.59058
1106.75	0.699158
1110.12	2.56348
1113.49	1.99457
1116.87	1.75269
1120.24	2.49487
1123.62	3.1521
1126.99	0.795776
1130.37	5.25366
1133.74	9.0769
1137.12	13.4351
1140.49	18.7827
1143.87	15.3101
1147.24	22.6278
1150.62	21.5521
1153.99	26.4795
1157.37	25.592
1160.74	25.2452
1164.12	26.9877
1167.49	28.7781
1170.87	26.2722
1174.24	20.1071
1177.62	18.3208
1180.99	20.873
1184.37	14.3589
1187.74	14.2494
1191.12	13.8839
1194.49	13.9397
1197.87	12.4131
1201.24	11.4254
1204.62	8.54541
1207.99	6.86072
1211.37	6.28613
1214.74	11.0117
1218.12	8.97632
1221.49	7.71045
1224.86	7.46484
1228.24	4.27637
1231.61	6.83777
1234.99	0.160278
1238.36	2.35669
1241.74	4.71277
1245.11	6.38477
1248.49	5.2605
1251.86	2.44946
1255.24	1.39526
1258.61	1.59863
1261.99	9.57031
1265.36	3.52576
1268.74	1.4104
1272.11	6.07165
1275.49	5.68457
1278.86	16.3037
1282.24	8.47668
1285.61	7.15418
1288.99	3.40015
1292.36	3.3728
1295.73	2.59265
1299.11	6.36292
1302.48	1.15662
