Measurement: Raman, 780 nm, unoriented, Raman Data Processed
Mineral: Yangite
Rruff sample: R090031
Ideal chemistry: Pb^2+^Mn^2+^Si_3_O_8_H_2_O
Locality: Kombat, Namibia
Source: William W. Pinch
Description: Colorless to pale brown bladed crystals associated with black massive melanotekite, R090032, and brown rhodochrosite. Sample is from the John Innes collection.
Measured chemistry: Pb_1.00_Mn_1.00_Si_3.00_O_8.00_Â·H_2_O
Raman shift (cm-1)	intensity
102.984	0
106.358	77.7667
109.733	114.454
113.108	171.519
116.483	297.504
119.858	490.262
123.232	826.982
126.607	1143.99
129.982	278.455
133.357	12.2611
136.732	16.738
140.107	0.43988
143.481	15.0672
146.856	18.5811
150.231	43.9922
153.606	87.1637
156.981	122.834
160.355	183.372
163.73	211.451
167.105	184.539
170.48	159.168
173.855	170.134
177.23	228.303
180.604	345.51
183.979	544.133
187.354	483.376
190.729	204.08
194.104	72.8699
197.478	33.7446
200.853	21.4611
204.228	19.2661
207.603	28.7013
210.978	13.0275
214.352	11.1596
217.727	6.1839
221.102	21.1388
224.477	63.2674
227.852	110.552
231.226	181.604
234.601	248.124
237.976	324.444
241.351	379.205
244.726	363.305
248.101	405.133
251.475	504.237
254.85	667.499
258.225	800.125
261.6	593.716
264.975	343.78
268.349	267.742
271.724	288.155
275.099	352.502
278.474	418.407
281.849	339.72
285.224	169.272
288.598	64.836
291.973	15.7752
295.348	3.77016
298.723	9.5127
302.098	4.77396
305.473	10.2616
308.847	26.8921
312.222	49.8409
315.597	86.7545
318.972	158.763
322.347	230.636
325.721	262.245
329.096	321.193
332.471	441.3
335.846	650.749
339.221	694.394
342.596	430.643
345.97	343.404
349.345	357.463
352.72	399.915
356.095	430.776
359.469	393.202
362.844	295.271
366.219	195.942
369.594	134.265
372.969	87.5284
376.344	57.613
379.718	45.6099
383.093	47.8898
386.468	59.9753
389.843	65.8944
393.218	24.8215
396.592	5.35567
399.967	12.8851
403.342	6.36218
406.717	13.667
410.092	37.4963
413.467	67.3397
416.841	108.359
420.216	166.887
423.591	197.422
426.966	143.708
430.341	75.5116
433.716	48.0597
437.09	29.1378
440.465	16.6464
443.84	10.8796
447.215	1.64249
450.59	2.50687
453.964	7.10742
457.339	15.6463
460.714	32.4504
464.089	52.4128
467.464	75.6039
470.839	97.9751
474.213	103.675
477.588	84.1422
480.963	55.9695
484.338	28.4324
487.713	9.05672
491.087	1.96858
494.462	11.7021
497.837	25.2022
501.212	50.3939
504.587	88.8705
507.962	127.283
511.336	167.793
514.711	205.685
518.086	221.534
521.461	192.948
524.836	130.46
528.21	85.0989
531.585	64.1072
534.96	45.5425
538.335	33.1039
541.71	20.8408
545.085	14.1404
548.459	8.76844
551.834	4.88094
555.209	1.6305
558.584	0.691483
561.959	1.24108
565.333	3.01016
568.708	2.7859
572.083	1.58872
575.458	2.68257
578.833	0.985207
582.207	1.33307
585.582	0.740364
588.957	4.56178
592.332	3.95373
595.707	7.51811
599.082	12.5917
602.456	19.484
605.831	30.3725
609.206	54.0645
612.581	103.204
615.956	159.95
619.33	217.286
622.705	299.319
626.08	411.804
629.455	425.827
632.83	234.413
636.205	100.074
639.579	46.7558
642.954	26.5205
646.329	15.1539
649.704	9.85098
653.079	5.2842
656.453	1.91708
659.828	1.48365
663.203	1.48948
666.578	0.546478
669.953	1.99747
673.327	3.274
676.702	5.46947
680.077	11.625
683.452	22.2192
686.827	34.6658
690.202	51.7754
693.576	68.4348
696.951	91.5019
700.326	100.216
703.701	93.0309
707.076	66.9342
710.45	43.715
713.825	27.7504
717.2	23.4322
720.575	23.8867
723.95	29.0449
727.324	38.3882
730.699	49.3901
734.074	48.8893
737.449	31.9772
740.824	18.5393
744.199	10.3967
747.573	5.19246
750.948	1.78045
754.323	1.4365
757.698	1.22682
761.073	0.28944
764.447	0.5513
767.822	1.48113
771.197	1.87933
774.572	6.45059
777.947	7.79513
781.322	13.6586
784.696	20.2934
788.071	29.0442
791.446	40.2709
794.821	42.7286
798.196	31.863
801.571	19.2365
804.945	12.5404
808.32	10.8867
811.695	6.53864
815.07	5.15785
818.445	5.64237
821.819	5.01546
825.194	1.76592
828.569	1.26839
831.944	1.55152
835.319	3.24468
838.693	0.321068
842.068	1.32478
845.443	2.47368
848.818	0.72982
852.193	0.770668
855.568	0.71228
858.942	0.425621
862.317	1.45399
865.692	2.29391
869.067	0.103127
872.442	1.89027
875.817	5.47454
879.191	11.5955
882.566	18.5266
885.941	31.4787
889.316	54.5258
892.691	98.4404
896.065	179.57
899.44	294.086
902.815	420.335
906.19	584.564
909.565	727.536
912.939	609.799
916.314	398.167
919.689	323.94
923.064	321.35
926.439	229.41
929.813	109.438
933.188	52.9301
936.563	25.0772
939.938	8.46526
943.313	1.718
946.688	3.53731
950.062	4.02698
953.437	2.97501
956.812	5.50338
960.187	15.2424
963.562	29.5283
966.937	53.1577
970.311	60.9667
973.686	41.6173
977.061	30.5674
980.436	41.6932
983.811	71.7824
987.185	134.624
990.56	221.011
993.935	345.088
997.31	545.502
1000.68	750.528
1004.06	869.333
1007.43	1073.43
1010.81	1300.5
1014.18	1057.88
1017.56	547.669
1020.93	268.173
1024.31	141.694
1027.68	76.4758
1031.06	41.7298
1034.43	21.578
1037.81	11.5586
1041.18	6.32074
1044.56	10.2487
1047.93	20.176
1051.31	31.7171
1054.68	53.634
1058.06	70.102
1061.43	49.6464
1064.81	22.3019
1068.18	8.3363
1071.56	6.57504
1074.93	4.61514
1078.31	11.2607
1081.68	17.721
1085.06	29.9772
1088.43	28.4419
1091.81	7.35485
1095.18	1.66961
1098.55	1.49109
1101.93	0.379639
1105.3	0.490047
1108.68	3.10731
1112.05	0.131237
1115.43	0.016098
1118.8	0.152607
1122.18	1.6406
1125.55	1.32305
1128.93	3.85374
1132.3	2.89662
1135.68	4.103
1139.05	9.26594
1142.43	7.22999
1145.8	9.10262
1149.18	7.90204
1152.55	8.32613
1155.93	7.83945
1159.3	9.13012
1162.68	10.4437
1166.05	10.204
1169.42	7.98262
1172.8	6.52764
1176.17	5.84594
1179.55	6.45419
1182.92	5.84056
1186.3	4.51204
1189.67	3.15269
1193.05	5.38302
1196.42	7.67012
1199.8	1.90175
1203.17	3.94247
1206.55	4.20036
1209.92	1.00166
1213.3	2.11537
1216.67	2.38947
1220.05	1.48563
1223.42	0.55806
1226.8	2.4139
1230.17	1.78109
1233.55	2.49293
1236.92	1.44424
1240.3	1.17627
1243.67	1.10989
1247.05	2.31998
1250.42	2.20601
1253.8	1.61719
1257.17	1.94199
1260.55	1.47149
1263.92	2.56012
1267.3	2.04686
1270.67	1.53644
1274.05	0.153954
1277.42	1.38084
1280.79	0.68121
1284.17	1.5698
