Measurement: Raman, 532 nm, unoriented, Raman Data Processed
Mineral: Yanomamite
Rruff sample: R060537
Ideal chemistry: In^3+^As^5+^O_4_2H_2_O
Locality: Periquito mine, Monte Alegre de Goias, Goias, Brazil
Source: Michael Scott
Description: Tan colored microscopic crystalline druse
Raman shift (cm-1)	intensity
130.2	0
133.093	1.99
135.985	3.291
138.878	172.597
141.771	403.771
144.663	627.957
147.556	896.488
150.449	1233.59
153.342	1400.43
156.234	1433.87
159.127	1460.07
162.02	1382.73
164.912	1260.96
167.805	1355.75
170.698	1683.35
173.59	2073.44
176.483	2555.91
179.376	2800.05
182.268	2609.68
185.161	2123.37
188.054	1574.62
190.947	1101.82
193.839	766.558
196.732	561.379
199.625	388.411
202.517	226.613
205.41	163.245
208.303	22.826
211.195	16.21
214.088	47.783
216.981	24.281
219.874	50.678
222.766	0.305
225.659	3.361
228.552	106.133
231.444	185.605
234.337	192.547
237.23	201.331
240.122	214.075
243.015	165.056
245.908	62.599
248.801	42.457
251.693	10.167
254.586	36.695
257.479	9.898
260.371	97.675
263.264	210.973
266.157	251.669
269.05	344.65
271.942	336.735
274.835	402.806
277.728	443.366
280.62	534.64
283.513	683.083
286.406	846.325
289.298	982.588
292.191	1118.05
295.084	1354
297.977	1728.14
300.869	2142.44
303.762	2415.86
306.655	2508.87
309.547	2273.36
312.44	1965.21
315.333	1690
318.225	1440.69
321.118	1374.87
324.011	1528.42
326.904	1631.64
329.796	1508.19
332.689	1265.14
335.582	959.35
338.474	571.12
341.367	326.068
344.26	215.507
347.152	26.729
350.045	46.792
352.938	55.811
355.831	124.738
358.723	30.768
361.616	66.184
364.509	49.446
367.401	169.322
370.294	289.161
373.187	402.292
376.079	538.608
378.972	647.945
381.865	596.551
384.758	577.684
387.65	437.802
390.543	358.482
393.436	370.632
396.328	335.707
399.221	347.838
402.114	488.457
405.007	638.397
407.899	880.363
410.792	1110.81
413.685	1362.77
416.577	1608.34
419.47	1913.27
422.363	2065.4
425.255	2064.32
428.148	1924.55
431.041	1835.06
433.934	1784.12
436.826	1698.25
439.719	1638.51
442.612	1536.07
445.504	1434.53
448.397	1309.46
451.29	1193.05
454.182	1136.62
457.075	1250.14
459.968	1329.89
462.861	1656.59
465.753	1977.51
468.646	2311.34
471.539	2593.89
474.431	2513.44
477.324	1889.95
480.217	1181.64
483.109	814.252
486.002	685.021
488.895	541.864
491.788	478.505
494.68	417.951
497.573	448.621
500.466	446.448
503.358	266.676
506.251	256.462
509.144	121.33
512.036	107.508
514.929	37.896
517.822	13.491
520.715	2.867
523.607	10.631
526.5	89.461
529.393	1.224
532.286	17.092
535.178	13.569
538.071	63.969
540.964	18.071
543.856	8.9
546.749	23.007
549.642	93.841
552.534	22.319
555.427	52.503
558.32	80.69
561.213	65.38
564.105	93.826
566.998	167.549
569.891	134.466
572.783	154.389
575.676	149.87
578.569	125.548
581.461	143.906
584.354	215.086
587.247	195.222
590.14	216.447
593.032	201.987
595.925	147.09
598.818	125.487
601.71	111.437
604.603	115.063
607.496	152.918
610.388	131.639
613.281	107.494
616.174	153.405
619.067	133.265
621.959	172.068
624.852	191.396
627.745	174.908
630.637	160.118
633.53	132.764
636.423	121.467
639.315	95.387
642.208	157.104
645.101	67.815
647.994	121.256
650.886	130.403
653.779	167.962
656.672	56.468
659.564	128.777
662.457	94.781
665.35	94.618
668.242	128.884
671.135	172.46
674.028	150.636
676.92	130.67
679.813	122.391
682.706	102.654
685.599	195.317
688.491	118.866
691.384	104.149
694.277	154.51
697.169	175.024
700.062	168.71
702.955	199.239
705.847	101.527
708.74	39.385
711.633	55.492
714.526	87.25
717.418	74.908
720.311	81.77
723.204	22.432
726.096	86.107
728.989	12.812
731.882	22.947
734.775	12.604
737.667	0.214
740.56	19.4
743.453	39.16
746.345	32.862
749.238	10.237
752.131	43.294
755.023	88.205
757.916	0.612
760.809	64.331
763.702	7.603
766.594	98.768
769.487	188.453
772.38	352.352
775.272	558.392
778.165	758.292
781.058	1064.27
783.951	1556.93
786.843	1953.46
789.736	2406.77
792.629	2684.15
795.521	2892.87
798.414	2990.45
801.307	2909.37
804.199	2764.78
807.092	2763.26
809.985	2599.63
812.878	2441.37
815.77	2232.19
818.663	1911.98
821.556	1548.49
824.448	1196.49
827.341	987.552
830.234	777.247
833.127	651.935
836.019	590.334
838.912	625.27
841.805	668.153
844.697	859.388
847.59	1016.23
850.483	1315.7
853.375	1676.29
856.268	2548.58
859.161	3701.14
862.054	5095.25
864.946	6118.35
867.839	6534.49
870.732	5866.35
873.624	4705.22
876.517	3537.08
879.41	2852.35
882.302	2388.37
885.195	1846.04
888.088	1653.3
890.981	1427.42
893.873	1288.23
896.766	1036.33
899.659	811.953
902.551	526.228
905.444	316.557
908.337	314.993
911.229	94.548
914.122	97.186
917.015	11.919
919.907	42.561
922.8	25.089
925.693	50.483
928.586	8.214
931.478	28.56
934.371	30.364
937.264	40.146
940.156	18.391
943.049	40.797
945.942	56.063
948.834	30.479
951.727	10.225
954.62	7.109
957.513	5.819
960.405	97.95
963.298	9.684
966.191	95.716
969.083	27.008
971.976	55.983
974.869	121.56
977.761	162.905
980.654	176.991
983.547	105.696
986.44	182.709
989.332	223.896
992.225	185.966
995.118	188.691
998.01	195.963
1000.9	278.488
1003.8	235.888
1006.69	195.617
1009.58	145.257
1012.47	211.426
1015.37	98.172
1018.26	149.026
1021.15	138.207
1024.05	78.178
1026.94	137.879
1029.83	199.762
1032.72	160.397
1035.62	196.995
1038.51	155.274
1041.4	213.268
1044.29	199.039
1047.19	94.739
1050.08	42.083
1052.97	77.389
1055.87	219.896
1058.76	184.799
1061.65	87.192
1064.54	92.684
1067.43	67.258
1070.33	85.92
1073.22	55.746
1076.11	49.979
1079.01	94.575
1081.9	62.136
1084.79	41.269
1087.68	97.972
1090.58	55.516
1093.47	95.034
1096.36	178.862
1099.26	100.45
1102.15	81.465
1105.04	98.579
1107.93	135.145
1110.83	129.275
1113.72	79.914
1116.61	110.404
1119.5	84.517
1122.4	93.694
1125.29	60.397
1128.18	166.504
1131.08	76.822
1133.97	162.794
1136.86	60.343
1139.75	150.632
1142.65	117.272
1145.54	51.403
1148.43	34.15
1151.32	70.65
1154.22	127.135
1157.11	113.106
1160	142.972
1162.89	113.584
1165.79	71.283
1168.68	13.883
1171.57	52.477
1174.46	140.145
1177.36	108.86
1180.25	91.939
1183.14	160.177
1186.04	166.83
1188.93	122.937
1191.82	42.263
1194.71	97.608
1197.61	10.345
1200.5	49.621
1203.39	94.676
1206.29	17.41
1209.18	2.28
1212.07	84.865
1214.96	178.014
1217.86	77.267
1220.75	85.585
1223.64	39.453
1226.53	53.783
1229.43	67.512
1232.32	142.127
1235.21	97.594
1238.11	127.021
1241	113.311
1243.89	71.806
1246.78	152.312
1249.68	147.737
1252.57	146.981
1255.46	106.728
1258.35	104.659
1261.25	112.75
1264.14	42.613
1267.03	6.295
1269.92	161.631
1272.82	173.282
1275.71	76.833
1278.6	0
