Measurement: Raman, 785 nm, unoriented, Raman Data Processed
Mineral: Yedlinite
Rruff sample: R050338
Ideal chemistry: Pb_6_Cr^3+^Cl_6_O(OH)_7_
Locality: Tiger, Pinal County, Arizona, USA
Source: University of Arizona Mineral Museum
Description: Pale purple prismatic crystals associated with blue diaboleite
Measured chemistry: Pb_6_Cr_0.99_Cl_6.01_(OH)_7_O
Raman shift (cm-1)	intensity
187.063	0
196.705	102.592
206.348	195.71
215.99	29.3682
225.632	197.177
235.275	147.371
244.917	360.216
254.559	463.441
264.202	653.186
273.844	741.631
283.486	946.285
293.129	1361.42
302.771	1681.67
312.413	2792.83
322.056	6573.08
331.698	10625.9
341.34	8418.75
350.983	4412.37
360.625	4586.39
370.267	4058.84
379.91	4080.84
389.552	1796.78
399.194	1221.22
408.837	979.055
418.479	888.092
428.121	819.928
437.764	890.518
447.406	978.52
457.048	818.793
466.691	857.96
476.333	656.001
485.975	402.764
495.618	284.82
505.26	162.791
514.902	106.091
524.545	1.34717
534.187	37.542
543.829	6.75586
553.472	18.144
563.114	62.2368
572.756	41.5542
582.399	38.7324
592.041	132.31
601.683	168.581
611.326	124.156
620.968	88.728
630.61	169.921
640.253	310.365
649.895	359.954
659.537	391.565
669.18	335.508
678.822	361.434
688.464	407.993
698.107	559.794
707.749	722.409
717.391	925.977
727.034	1076.03
736.676	1329.67
746.318	1669.32
755.961	2036.19
765.603	2557.54
775.245	3581.6
784.888	5068.66
794.53	7831.77
804.172	12884.1
813.814	22964
823.457	32866.1
833.099	24391.3
842.741	13274.8
852.384	6798.9
862.026	4131.78
871.668	2969.6
881.311	2222.89
890.953	1776.05
900.596	1587.24
910.238	1263.03
919.88	1115.74
929.523	1022.3
939.165	952.196
948.807	604.617
958.449	448.982
968.092	389.127
977.734	292.997
987.376	187.494
997.019	135.644
1006.66	137.403
1016.3	20.0366
1025.95	59.4976
1035.59	32.7163
1045.23	5.87646
1054.87	35.6187
1064.52	10.4248
1074.16	48.73
1083.8	13.2671
1093.44	56.0005
1103.08	0.947754
1112.73	18.3276
1122.37	61.2651
1132.01	78.7534
1141.65	111.228
1151.3	119.966
1160.94	217.637
1170.58	166.32
1180.22	188.157
1189.87	205.745
1199.51	185.833
1209.15	189.973
1218.79	159.77
1228.43	96.4155
1238.08	146.968
1247.72	166.752
1257.36	187.388
1267	179.567
1276.65	121.305
1286.29	107.32
1295.93	104.895
1305.57	115.823
1315.22	58.3999
1324.86	31.7935
1334.5	45.2991
1344.14	32.229
1353.79	34.6226
1363.43	25.3381
1373.07	54.926
1382.71	19.6323
1392.35	40.0986
1402	33.9522
1411.64	34.083
1421.28	27.4094
1430.92	11.1187
1440.57	104.311
1450.21	62.1704
1459.85	39.2644
1469.49	17.1482
1479.13	34.0891
1488.78	15.2568
1498.42	46.2974
1508.06	54.8533
1517.7	76.7349
1527.35	99.196
1536.99	48.7715
1546.63	92.5842
1556.27	84.1426
1565.92	63.7017
1575.56	92.0857
1585.2	75.1448
1594.84	143.96
1604.49	96.5896
1614.13	112.439
1623.77	173.077
1633.41	194.792
1643.06	189.489
1652.7	233.534
1662.34	203.749
1671.98	176.413
1681.62	126.717
1691.27	90.6169
1700.91	33.8835
1710.55	38.9502
1720.19	27.0115
1729.84	71.8914
1739.48	39.9246
1749.12	27.6899
1758.76	78.3296
1768.4	50.5303
1778.05	65.2405
1787.69	57.1255
1797.33	47.406
1806.97	12.4665
1816.62	11.3279
1826.26	3.43945
1835.9	6.25806
1845.54	22.2024
1855.19	8.06714
1864.83	21.5784
1874.47	71.0027
1884.11	19.8359
1893.76	28.627
1903.4	65.7085
1913.04	47.2952
1922.68	29.574
1932.33	61.1821
1941.97	55.2935
1951.61	37.593
1961.25	41.4038
1970.89	64.2427
1980.54	75.2573
1990.18	61.2212
1999.82	58.4941
2009.46	78.5083
2019.11	52.7419
2028.75	39.5571
2038.39	47.2022
2048.03	20.6057
2057.68	16.2146
2067.32	0.051758
2076.96	53.28
2086.6	82.9268
2096.24	17.2935
2105.89	24.3337
2115.53	101.308
2125.17	73.2358
2134.81	88.7214
2144.46	17.5852
2154.1	47.4331
2163.74	414.637
2173.38	0.06665
2183.03	48.9282
2192.67	5.85425
2202.31	35.7144
2211.95	38.5048
2221.59	43.157
2231.24	21.1339
2240.88	41.9584
2250.52	29.9159
2260.16	62.5172
2269.81	10.3674
2279.45	6.47388
2289.09	52.3159
2298.73	63.8927
2308.38	11.9678
2318.02	64.2593
2327.66	53.1775
2337.3	86.7306
2346.95	51.639
2356.59	51.8345
2366.23	13.1371
2375.87	27.65
2385.51	21.8881
2395.16	74.9394
2404.8	40.5516
2414.44	42.9274
2424.08	81.6831
2433.73	32.0275
2443.37	56.2058
2453.01	64.7986
2462.65	43.6136
2472.3	29.7474
2481.94	29.8038
2491.58	57.7895
2501.22	9.64539
2510.86	51.4703
2520.51	69.0947
2530.15	36.6605
2539.79	44.1847
2549.43	82.3733
2559.08	23.0742
2568.72	5.6571
2578.36	31.8278
2588	11.795
2597.65	45.2463
2607.29	7.47021
2616.93	66.7531
2626.57	52.2364
2636.22	24.2068
2645.86	62.9888
2655.5	103.006
2665.14	24.5538
2674.78	66.246
2684.43	14.3005
2694.07	5.5484
2703.71	22.7023
2713.35	71.9774
2723	10.5663
2732.64	37.5229
2742.28	21.4625
2751.92	69.9565
2761.57	35.4772
2771.21	43.6181
2780.85	21.6717
2790.49	24.6075
2800.14	47.4486
2809.78	47.9561
2819.42	23.2958
2829.06	58.7124
2838.7	57.6031
2848.35	3.89862
2857.99	53.078
2867.63	38.0506
2877.27	45.1487
2886.92	0.009521
2896.56	58.2961
2906.2	45.7007
2915.84	62.1859
2925.49	65.4512
2935.13	38.5697
2944.77	8.41977
2954.41	41.0569
2964.05	49.0233
2973.7	32.193
2983.34	65.9742
2992.98	51.2681
3002.62	34.1549
3012.27	96.4141
3021.91	69.3133
3031.55	55.7883
3041.19	35.9014
3050.84	6.311
3060.48	15.7081
3070.12	26.7707
3079.76	67.6006
3089.41	61.4383
3099.05	18.9467
3108.69	67.1518
3118.33	76.4032
3127.97	37.9695
3137.62	19.7903
3147.26	1.80681
3156.9	18.9264
3166.54	11.982
3176.19	56.7326
3185.83	51.6601
3195.47	58.0152
3205.11	73.7182
3214.76	57.8047
3224.4	38.4728
3234.04	43.485
3243.68	34.8942
3253.32	85.4574
3262.97	81.85
3272.61	79.0161
3282.25	72.0984
3291.89	60.3312
3301.54	66.2419
3311.18	43.8537
3320.82	12.5558
3330.46	52.8696
3340.11	54.5307
3349.75	34.0611
3359.39	62.3421
3369.03	82.1491
3378.68	36.3151
3388.32	52.2799
3397.96	0
