Measurement: Raman, 532 nm, unoriented, Raman Data Processed
Mineral: Yoshimuraite
Rruff sample: R050266
Ideal chemistry: Ba_2_Mn^2+^_2_Ti(Si_2_O_7_)(PO_4_)O(OH)
Locality: Taguchi mine, Shidara, Kitashidara-Gun, Aichi Prefecture, Japan
Source: Marcus Origlieri
Description: Brown tabular crystals associated with katophorite, R050633.
Measured chemistry: (Ba_1.82_Sr_0.18_)_Σ=2_(Ti_0.78_Fe^3+^_0.22_)_Σ=1_(Mn^2+^_1.62_Fe^2+^_0.38_)_Σ=2_O(Si_2.00_O_7_)((P_0.59_S_0.41_)_Σ=1_O_4_)((OH)_0.81_O_0.19_)_Σ=1_; OH estimated by charge balance
Raman shift (cm-1)	intensity
152.939	0
155.832	4.76294
158.724	9.07678
161.617	15.8176
164.51	14.6518
167.402	23.5697
170.295	31.7321
173.188	26.957
176.081	32.3785
178.973	42.9393
181.866	60.1725
184.759	61.7508
187.651	55.9852
190.544	48.5811
193.437	44.8084
196.329	30.1735
199.222	12.8938
202.115	10.2645
205.008	0.569519
207.9	7.09656
210.793	6.94269
213.686	0.167236
216.578	12.2933
219.471	22.5467
222.364	36.1714
225.256	49.3267
228.149	69.3033
231.042	78.6139
233.935	92.8331
236.827	91.6116
239.72	83.115
242.613	72.696
245.505	57.7856
248.398	49.3121
251.291	40.2784
254.184	33.989
257.076	18.5584
259.969	15.4913
262.862	14.1083
265.754	12.1258
268.647	19.3486
271.54	31.1626
274.433	51.9451
277.325	72.9102
280.218	83.2067
283.111	81.605
286.003	64.615
288.896	49.5281
291.789	29.8985
294.681	18.2792
297.574	9.66418
300.467	1.19244
303.36	8.66425
306.252	7.85229
309.145	3.06995
312.038	6.0094
314.93	25.2712
317.823	30.1867
320.716	41.6406
323.608	49.7508
326.501	73.4877
329.394	87.4329
332.287	104.881
335.179	135.57
338.072	155.567
340.965	183.966
343.857	185.214
346.75	180.426
349.643	164.089
352.536	150.689
355.428	146.821
358.321	151.525
361.214	152.537
364.106	154.981
366.999	153.385
369.892	137.268
372.784	110.632
375.677	95.105
378.57	74.0001
381.462	64.5558
384.355	67.6478
387.248	87.732
390.141	117.006
393.033	162.219
395.926	202.673
398.819	240.185
401.712	268.55
404.604	271.801
407.497	252.036
410.39	230.246
413.282	195.149
416.175	150.718
419.068	100.02
421.96	62.278
424.853	30.8868
427.746	10.7178
430.639	1.49661
433.531	7.2059
436.424	0.629791
439.317	0.61554
442.209	6.23865
445.102	21.7766
447.995	23.2777
450.887	39.8182
453.78	44.0532
456.673	62.9562
459.565	74.8708
462.458	84.569
465.351	88.4177
468.244	94.3532
471.136	95.5923
474.029	95.161
476.922	88.2308
479.815	59.9953
482.707	40.9674
485.6	29.3346
488.493	16.6232
491.385	18.0801
494.278	12.5357
497.171	5.07227
500.063	6.16232
502.956	5.33609
505.849	9.89481
508.741	7.81131
511.634	8.03775
514.527	9.70074
517.42	5.25092
520.312	5.37152
523.205	0.976715
526.098	0.801788
528.99	5.12521
531.883	6.48264
534.776	5.94754
537.668	5.21155
540.561	8.86636
543.454	6.42258
546.347	3.99377
549.239	5.26947
552.132	11.387
555.025	27.3137
557.917	41.8133
560.81	71.0359
563.703	103.281
566.596	153.718
569.488	234.09
572.381	333.771
575.274	462.282
578.166	591.196
581.059	721.989
583.952	825.642
586.845	830.221
589.737	716.95
592.63	537.454
595.523	393.044
598.415	293.319
601.308	225.214
604.201	165.436
607.093	109.197
609.986	66.0819
612.879	56.9953
615.771	51.1143
618.664	60.8076
621.557	80.8383
624.45	104.345
627.342	150.214
630.235	214.264
633.128	285.162
636.02	370.694
638.913	460.094
641.806	530.851
644.698	557.013
647.591	543.017
650.484	521.526
653.377	508.433
656.269	507.844
659.162	508.444
662.055	507.269
664.947	516.67
667.84	527.974
670.733	510.566
673.626	455.307
676.518	354.276
679.411	249.556
682.304	180.188
685.196	132.898
688.089	98.6651
690.982	79.8264
693.875	66.9854
696.767	50.988
699.66	48.8577
702.553	43.329
705.445	36.2033
708.338	29.6068
711.231	27.5535
714.124	13.7594
717.016	10.1
719.909	3.31769
722.802	1.7171
725.694	4.20178
728.587	4.92999
731.48	6.10574
734.372	8.57864
737.265	10.343
740.158	12.1167
743.051	5.38083
745.943	7.63693
748.836	4.30746
751.729	13.5632
754.621	26.5253
757.514	46.186
760.407	71.6829
763.299	100.774
766.192	153.695
769.085	209.688
771.977	279.255
774.87	350.479
777.763	427.047
780.656	506.944
783.548	566.576
786.441	603.113
789.334	607.808
792.226	582.128
795.119	535.812
798.012	463.21
800.904	374.203
803.797	288.763
806.69	209.35
809.583	133.181
812.475	73.0123
815.368	25.7758
818.261	1.38861
821.154	1.5238
824.046	2.24001
826.939	10.3638
829.832	31.2906
832.724	52.9746
835.617	78.7013
838.51	114.635
841.402	143.926
844.295	161.215
847.188	170.269
850.081	172.016
852.973	153.493
855.866	138.775
858.759	141.457
861.651	154.308
864.544	187.54
867.437	218.367
870.33	252.448
873.222	258.715
876.115	234.368
879.008	196.95
881.9	152.263
884.793	126.223
887.686	102.387
890.578	76.7888
893.471	62.6317
896.364	50.2039
899.256	37.668
902.149	27.2961
905.042	11.1779
907.935	7.948
910.827	3.53143
913.72	11.1636
916.613	18.9201
919.505	45.4056
922.398	87.6428
925.291	152.687
928.183	243.312
931.076	349.195
933.969	450.812
936.862	488.935
939.754	418.266
942.647	305.342
945.54	217.254
948.432	156.125
951.325	110.921
954.218	74.8151
957.111	37.3356
960.003	16.0754
962.896	0.85318
965.789	15.6638
968.681	11.2503
971.574	10.0428
974.467	5.79468
977.36	42.9657
980.252	109.938
983.145	214.011
986.038	347.848
988.93	517.485
991.823	678.334
994.716	673.106
997.608	449.878
1000.5	254.051
1003.39	186.706
1006.29	188.709
1009.18	205.506
1012.07	221.121
1014.97	241.01
1017.86	263.149
1020.75	277.717
1023.64	271.506
1026.54	244.437
1029.43	202.726
1032.32	160.927
1035.21	128.972
1038.11	110.912
1041	92.4418
1043.89	85.1233
1046.78	84.8355
1049.68	96.5414
1052.57	122.121
1055.46	157.979
1058.36	196.502
1061.25	231.315
1064.14	242.275
1067.03	213.238
1069.93	137.537
1072.82	66.856
1075.71	21.8646
1078.6	7.23877
1081.5	2.18317
1084.39	2.04401
1087.28	3.18674
1090.17	4.0412
1093.07	1.19046
1095.96	1.05191
1098.85	1.46854
1101.75	1.23746
1104.64	3.42075
1107.53	4.66226
1110.42	11.7797
1113.32	12.2583
1116.21	16.333
1119.1	16.2853
1121.99	13.9399
1124.89	17.6235
1127.78	15.5592
1130.67	17.1816
1133.57	19.6089
1136.46	14.4566
1139.35	13.8766
1142.24	12.8525
1145.14	17.2096
1148.03	21.0165
1150.92	28.9846
1153.81	40.316
1156.71	57.3546
1159.6	62.3821
1162.49	64.3204
1165.38	54.9169
1168.28	43.5193
1171.17	36.7405
1174.06	36.9161
1176.96	39.8489
1179.85	32.0873
1182.74	20.3068
1185.63	14.8068
1188.53	14.497
1191.42	9.84073
1194.31	7.91977
1197.2	9.2897
1200.1	0.911835
1202.99	3.63745
1205.88	2.82428
1208.78	1.53616
1211.67	0.763123
1214.56	4.37824
1217.45	0.984009
1220.35	4.3204
1223.24	4.70725
1226.13	1.65164
1229.03	1.20291
1231.92	1.95551
1234.81	1.65247
1237.7	2.78201
1240.6	1.03488
1243.49	1.9198
1246.38	0.835388
1249.27	0.446411
1252.17	1.34699
1255.06	2.62958
1257.95	2.20886
1260.84	2.40414
1263.74	1.5004
1266.63	0.907257
1269.52	4.05835
1272.41	3.57794
1275.31	2.31158
1278.2	4.00726
1281.09	3.40405
1283.99	1.64951
1286.88	3.79569
1289.77	3.42639
1292.66	4.78201
1295.56	1.15616
1298.45	2.48459
1301.34	0.956573
