Measurement: Raman, 514 nm, unoriented, Raman Data Processed
Mineral: Yoshimuraite
Rruff sample: R050266
Ideal chemistry: Ba_2_Mn^2+^_2_Ti(Si_2_O_7_)(PO_4_)O(OH)
Locality: Taguchi mine, Shidara, Kitashidara-Gun, Aichi Prefecture, Japan
Source: Marcus Origlieri
Description: Brown tabular crystals associated with katophorite, R050633.
Measured chemistry: (Ba_1.82_Sr_0.18_)_Σ=2_(Ti_0.78_Fe^3+^_0.22_)_Σ=1_(Mn^2+^_1.62_Fe^2+^_0.38_)_Σ=2_O(Si_2.00_O_7_)((P_0.59_S_0.41_)_Σ=1_O_4_)((OH)_0.81_O_0.19_)_Σ=1_; OH estimated by charge balance
Raman shift (cm-1)	intensity
88.811	0
93.766	1294.83
98.717	2609.88
103.666	2935.65
108.613	4148.93
113.557	2764.4
118.498	1909.26
123.436	664.707
128.373	162.279
133.306	218.82
138.237	35.8125
143.165	20.707
148.091	44.1309
153.014	310.658
157.934	226.227
162.852	480.125
167.767	381.002
172.68	427.869
177.59	656.615
182.498	862.803
187.402	846.312
192.305	1096.53
197.204	1116.05
202.101	1277
206.996	39.7812
211.888	288.525
216.777	750.762
221.663	1556.85
226.547	2878
231.429	4378.84
236.308	5136.19
241.184	4902.22
246.057	3975.75
250.928	3320.81
255.797	2496.34
260.663	2533.84
265.526	1908.96
270.386	1869.62
275.244	2211.94
280.1	2704.42
284.952	2172.28
289.803	1440.33
294.65	713.523
299.495	695.762
304.337	621.543
309.177	799.916
314.014	958.383
318.849	915.816
323.681	1427.59
328.51	1721.44
333.337	1899.76
338.161	2226.11
342.982	1942.44
347.801	1916.33
352.617	1436.03
357.431	1476.47
362.242	1826.04
367.051	2102.31
371.856	2636.42
376.66	3147.47
381.46	4087.95
386.258	6051.76
391.054	9039.86
395.846	12184.3
400.637	14152.9
405.424	13807.4
410.209	12443
414.991	9796.45
419.771	6827.55
424.548	4710.27
429.323	3468.08
434.095	2994.53
438.864	2796.51
443.631	2677.88
448.395	3259.38
453.156	3203.06
457.915	3128.11
462.672	2599.8
467.425	3132.72
472.176	3106.35
476.925	2755.86
481.671	1345.15
486.414	726.168
491.154	413.852
495.892	375
500.628	148.465
505.36	64.8809
510.091	139.867
514.818	40.3398
519.543	246.627
524.266	336.496
528.985	237.074
533.702	191.402
538.417	123.752
543.129	143.701
547.838	324.016
552.545	981.238
557.249	1662.65
561.95	2810.25
566.649	4400.04
571.345	6842
576.039	11849.1
580.73	18016.4
585.418	20372.1
590.104	15772.4
594.787	10948.6
599.468	8754.92
604.146	6592.57
608.821	5083.81
613.494	4770.59
618.164	4895.82
622.832	4947.92
627.497	5706.93
632.159	6794.98
636.819	8914.52
641.476	11085.5
646.13	10166.3
650.782	9567.41
655.431	9091.27
660.078	9290.62
664.722	10699.5
669.363	11430.9
674.002	9519.54
678.638	6236.26
683.272	4013.88
687.903	2370.13
692.531	1792.48
697.157	1216.34
701.78	1206.42
706.401	995.775
711.019	805.469
715.634	487.557
720.247	149.096
724.857	199.371
729.464	299.356
734.069	406.815
738.671	147.551
743.271	339.363
747.868	131.922
752.462	198.34
757.054	886.082
761.644	1847.88
766.23	2881.29
770.814	5088.92
775.396	7566.91
779.974	10164.4
784.55	12926.5
789.124	14230.7
793.695	13761.5
798.263	12357.1
802.829	10033.8
807.392	7708.72
811.953	5490.06
816.511	4645.75
821.066	4308.89
825.619	5315.36
830.169	6695.27
834.716	7592.93
839.261	8861.1
843.803	10364.5
848.343	10937.2
852.88	11775
857.414	13148.1
861.946	16146
866.476	20319.4
871.002	22529
875.526	21879.4
880.048	19669.2
884.566	16658.9
889.083	14327.1
893.596	13021
898.107	11920.7
902.615	11038
907.121	9245.03
911.624	8510.76
916.125	7458.19
920.623	7211.31
925.118	7810.1
929.611	10548.6
934.101	14125.7
938.589	12556.6
943.074	7514.03
947.556	5234.45
952.036	2998.98
956.513	1830.2
960.987	1312.38
965.459	311.977
969.928	151.894
974.395	393.359
978.859	693.031
983.321	3072.38
987.779	9703.29
992.236	15866
996.689	9095.27
1001.14	2854.34
1005.59	1894.05
1010.03	1860.09
1014.48	2134.43
1018.92	2653.7
1023.36	2478.55
1027.79	1809.7
1032.22	1319.08
1036.65	963.633
1041.08	576.316
1045.51	837.203
1049.93	1409.99
1054.35	2179.66
1058.77	3887.36
1063.18	6403.1
1067.59	4894.34
1072	1820.71
1076.41	31.832
1080.81	134.488
1085.22	380.793
1089.62	91.8125
1094.01	197.203
1098.4	248.41
1102.8	254.496
1107.18	64.2422
1111.57	269.004
1115.95	212.793
1120.34	423.039
1124.71	240.18
1129.09	335.301
1133.46	496.496
1137.83	39.8047
1142.2	126.738
1146.57	558.574
1150.93	707.168
1155.29	969.981
1159.64	1330.56
1164	1095.99
1168.35	963.484
1172.7	859.519
1177.05	823.656
1181.39	552.129
1185.73	537.731
1190.08	665.406
1194.41	221.84
1198.74	189.121
1203.08	589.332
1207.41	272.969
1211.73	426.731
1216.06	532.481
1220.38	39.9883
1224.69	85.4375
1229.01	176.144
1233.32	67.1211
1237.63	318.961
1241.94	250.711
1246.25	262.871
1250.55	26.1602
1254.85	167.008
1259.15	316.238
1263.44	67.0547
1267.74	389.637
1272.03	144.969
1276.32	55.8008
1280.6	343.324
1284.88	382.434
1289.16	299.086
1293.44	361.566
1297.71	233.641
1301.98	7.80469
1306.25	388.137
1310.52	379.312
1314.78	542.523
1319.05	349.164
1323.31	660.734
1327.56	234.59
1331.81	256.676
1336.07	463.469
1340.31	50.1484
1344.56	471.777
1348.8	570.371
1353.04	346.672
1357.28	410.816
1361.52	119.117
1365.75	419.906
1369.98	112.336
1374.21	213.875
1378.43	468.762
1382.66	237.816
1386.88	347.856
1391.09	372.297
1395.31	520.051
1399.52	70.0156
1403.73	668.734
1407.94	306.852
1412.14	320.387
1416.35	40.2461
1420.54	506.887
1424.74	83.1016
1428.93	91.3398
1433.13	248.332
1437.32	234.5
1441.5	521.402
1445.69	619.84
1449.87	265.754
1454.05	370.531
1458.22	702.262
1462.4	314.445
1466.57	307.688
1470.73	247.094
1474.9	375.816
1479.06	115.152
1483.22	494.633
1487.38	182.019
1491.54	13.5156
1495.69	285.992
1499.84	483.934
1503.99	201.481
1508.13	174.703
1512.28	326.836
1516.42	311.566
1520.56	416.59
1524.69	413.016
1528.82	117.809
1532.95	270.785
1537.08	111.602
1541.2	367.402
1545.33	286.387
1549.44	277.848
