Measurement: Raman, 532 nm, unoriented, Raman Data Processed
Mineral: Yttrotantalite-(Y)
Rruff sample: R080046
Ideal chemistry: (Y,U,Fe^2+^)(Ta,Nb)_2_(O,OH)_4_
Locality: Swaziland
Source: American Museum of Natural History
Description: Brown glassy from amorphous sample R060022 after heating at T = 850 C for 18 hours
Raman shift (cm-1)	intensity
159.876	0
162.769	6.53223
165.662	0.956909
168.554	3.53565
171.447	10.8252
174.34	10.2573
177.233	20.5007
180.125	28.0413
183.018	35.301
185.911	39.1349
188.803	44.6105
191.696	46.1421
194.589	49.8774
197.482	45.2803
200.374	46.0031
203.267	38.1212
206.16	32.0515
209.052	22.2699
211.945	15.6248
214.838	9.73474
217.73	2.83411
220.623	1.32495
223.516	3.39429
226.409	6.02759
229.301	16.7726
232.194	25.9326
235.087	36.0793
237.979	53.6383
240.872	65.5071
243.765	72.0389
246.657	73.3898
249.55	72.8107
252.443	63.7762
255.335	53.5465
258.228	42.7383
261.121	38.9928
264.014	44.5889
266.906	56.9819
269.799	82.0508
272.692	113.282
275.584	138.079
278.477	170.398
281.37	196.42
284.262	223.066
287.155	235.431
290.048	237.733
292.941	225.874
295.833	199.059
298.726	170.47
301.619	135.874
304.511	105.319
307.404	83.1248
310.297	57.4684
313.19	36.5458
316.082	18.2886
318.975	9.14246
321.868	2.08154
324.76	10.9785
327.653	12.8173
330.546	13.7068
333.438	9.46179
336.331	5.59436
339.224	5.99939
342.116	17.1345
345.009	35.1731
347.902	58.7887
350.795	82.8547
353.687	114.852
356.58	149.243
359.473	194.759
362.365	235.77
365.258	284.217
368.151	332.2
371.043	370.423
373.936	394.068
376.829	405.179
379.721	403.478
382.614	379.084
385.507	345.106
388.4	307.793
391.292	282.615
394.185	263.789
397.078	251.606
399.97	247.836
402.863	245.082
405.756	235.612
408.649	234.33
411.541	232.367
414.434	242.367
417.327	260.34
420.219	286.187
423.112	301.449
426.005	306.854
428.897	287.677
431.79	244.454
434.683	191.661
437.575	128.016
440.468	77.7689
443.361	39.8987
446.254	27.5177
449.146	22.9226
452.039	26.4387
454.932	25.541
457.824	29.6665
460.717	37.0978
463.61	47.6519
466.502	60.4208
469.395	62.4686
472.288	63.944
475.181	65.4662
478.073	63.7673
480.966	54.3807
483.859	49.5743
486.751	43.249
489.644	36.1737
492.537	25.7014
495.43	15.3346
498.322	7.71668
501.215	3.09045
504.108	2.77405
507	2.79358
509.893	2.47302
512.786	1.12952
515.678	5.81677
518.571	1.07605
521.464	4.98584
524.356	4.20996
527.249	6.55005
530.142	14.0242
533.034	22.8004
535.927	31.0825
538.82	35.8054
541.713	36.6819
544.605	35.1263
547.498	30.7159
550.391	28.0394
553.283	27.1621
556.176	24.8713
559.069	19.3002
561.962	16.4176
564.854	13.051
567.747	8.06311
570.64	7.62976
573.532	7.10461
576.425	6.68042
579.318	3.672
582.21	2.90881
585.103	3.90747
587.996	7.01636
590.889	0.761719
593.781	5.24439
596.674	15.5219
599.567	30.0238
602.459	46.3023
605.352	58.3339
608.245	75.1351
611.138	94.9176
614.03	112.818
616.923	132.219
619.816	138.531
622.708	145.607
625.601	146.827
628.494	145.713
631.386	141.739
634.279	143.177
637.172	135.849
640.064	133.096
642.957	125.451
645.85	121.208
648.743	112.852
651.635	108.946
654.528	103.684
657.421	108.814
660.313	114.847
663.206	118.447
666.099	116.578
668.991	114.217
671.884	114.004
674.777	104.762
677.669	93.3231
680.562	67.434
683.455	42.6494
686.348	16.9094
689.24	2.93542
692.133	10.0718
695.026	19.7612
697.918	19.6696
700.811	13.6388
703.704	1.98438
706.596	10.2465
709.489	24.9067
712.382	45.9198
715.275	63.1345
718.167	79.3545
721.06	95.0894
723.953	108.71
726.845	110.162
729.738	106.764
732.631	107.424
735.524	102.352
738.416	96.3986
741.309	86.1081
744.202	80.426
747.094	73.9185
749.987	77.6887
752.88	79.5894
755.772	96.0731
758.665	110.784
761.558	138.515
764.451	169.945
767.343	203.376
770.236	236.18
773.129	261.572
776.021	279.192
778.914	288.895
781.807	288.815
784.699	285.049
787.592	275.586
790.485	265.094
793.377	262.281
796.27	260.782
799.163	252.374
802.056	245.644
804.948	243.055
807.841	238.93
810.734	239.977
813.626	233.603
816.519	228.984
819.412	216.788
822.304	206.528
825.197	204.322
828.09	189.384
830.982	178.809
833.875	166.679
836.768	155.772
839.661	144.711
842.553	140.161
845.446	128.577
848.339	120.677
851.231	107.318
854.124	98.3434
857.017	87.6339
859.909	80.39
862.802	72.4054
865.695	60.2109
868.588	51.6976
871.48	40.7836
874.373	35.3922
877.266	23.5966
880.158	11.7542
883.051	3.01459
885.944	1.81342
888.837	8.01367
891.729	8.12946
894.622	13.3976
897.515	11.3031
900.407	10.7606
903.3	6.68146
906.193	5.4071
909.085	0.933838
911.978	5.33966
914.871	10.3666
917.764	14.9853
920.656	20.6364
923.549	26.1157
926.442	33.0347
929.334	39.6731
932.227	45.9645
935.12	50.4824
938.012	57.4612
940.905	62.331
943.798	68.0135
946.691	71.4024
949.583	77.0948
952.476	71.286
955.369	71.5308
958.261	68.8393
961.154	66.2813
964.047	62.69
966.939	58.9521
969.832	55.675
972.725	55.5105
975.617	52.1038
978.51	49.2981
981.403	48.7882
984.296	46.3459
987.188	45.3079
990.081	42.8986
992.974	41.6367
995.866	38.0263
998.759	35.6332
1001.65	34.4603
1004.54	32.059
1007.44	30.7929
1010.33	28.2224
1013.22	26.4042
1016.12	24.9294
1019.01	23.0638
1021.9	20.6479
1024.79	19.4907
1027.69	16.9653
1030.58	15.9361
1033.47	16.1198
1036.36	13.1683
1039.26	13.1349
1042.15	10.7999
1045.04	9.28825
1047.93	7.8105
1050.83	7.16277
1053.72	7.13699
1056.61	5.88225
1059.51	5.0874
1062.4	4.81332
1065.29	2.95903
1068.18	3.23184
1071.08	2.32007
1073.97	1.18657
1076.86	0.983948
1079.76	0.650116
1082.65	0.272018
1085.54	0.505981
1088.43	0.115158
1091.33	0.092911
1094.22	0.513992
1097.11	1.20607
1100	0.272308
1102.9	1.43529
1105.79	0.333954
1108.68	0.207092
1111.57	0.030396
1114.47	0.563843
1117.36	0.363892
1120.25	0.024673
1123.14	0.384918
1126.04	0.050583
1128.93	0.001282
1131.82	1.05516
1134.72	0.44606
1137.61	0.681168
1140.5	0.341949
1143.39	0.040894
1146.29	0.418076
1149.18	0.194595
1152.07	0.915695
1154.96	1.32097
1157.86	1.21518
1160.75	0.210388
1163.64	0.28154
1166.54	1.37041
1169.43	1.83197
1172.32	0.238098
1175.21	0.831635
1178.11	1.2341
1181	0.634186
1183.89	1.38974
1186.79	1.1601
1189.68	1.11446
1192.57	1.39897
1195.46	0.980997
1198.36	1.63232
1201.25	1.28425
1204.14	1.19639
1207.03	2.21199
1209.93	1.92669
1212.82	1.97956
1215.71	1.92107
1218.6	2.24835
1221.5	0.919945
1224.39	1.94949
1227.28	1.64922
1230.17	2.20403
1233.07	1.13369
1235.96	1.16248
1238.85	1.82414
1241.75	1.66213
1244.64	1.88647
1247.53	0.18425
1250.42	0.5746
1253.32	1.61504
1256.21	1.50423
1259.1	1.03768
1261.99	0.947975
1264.89	1.26624
1267.78	1.29532
1270.67	1.19054
1273.57	0.808922
1276.46	0.850304
1279.35	0.775475
1282.24	2.05756
1285.14	1.42708
1288.03	1.51024
1290.92	0.172623
1293.81	0.520668
1296.71	0.623528
1299.6	0.528343
1302.49	0.500809
1305.38	0
