Measurement: Raman, 532 nm, unoriented, Raman Data Processed
Mineral: Yttrium aluminum garnet
Rruff sample: X090003
Ideal chemistry: Y_3_Al_2_(AlO_4_)_3_
Locality: Synthetic
Source: Gemological Institute of America
Description: Faceted colorless gemstone, 1.42 ct
Raman shift (cm-1)	intensity
97.1936	0
100.568	1.85807
103.943	3.87459
107.318	1.57619
110.693	0.073268
114.068	1.00655
117.442	6.93134
120.817	10.7994
124.192	19.3681
127.567	35.4865
130.942	46.1238
134.317	48.3559
137.691	58.2308
141.066	89.145
144.441	165.821
147.816	125.69
151.191	133.774
154.565	153.476
157.94	221.939
161.315	620.088
164.69	282.71
168.065	49.6021
171.44	35.0575
174.814	28.0794
178.189	24.2844
181.564	21.8059
184.939	21.2986
188.314	16.3168
191.688	13.5805
195.063	12.3371
198.438	13.1036
201.813	21.2975
205.188	24.5715
208.562	31.0962
211.937	45.6618
215.312	87.5338
218.687	180.935
222.062	32.633
225.437	2.07745
228.811	3.0118
232.186	3.21591
235.561	0.515091
238.936	13.1537
242.311	60.1502
245.685	99.4442
249.06	136.977
252.435	214.843
255.81	402.175
259.185	843.965
262.56	579.584
265.934	130.607
269.309	45.4734
272.684	19.1575
276.059	10.4343
279.434	6.99619
282.808	10.4884
286.183	10.0313
289.558	20.4854
292.933	46.4368
296.308	32.1154
299.683	6.15231
303.057	1.98017
306.432	4.65839
309.807	4.91823
313.182	4.1874
316.557	4.81776
319.932	0.443459
323.306	16.7974
326.681	35.155
330.056	61.8372
333.431	114.219
336.805	222.23
340.18	261.82
343.555	89.7646
346.93	40.9341
350.305	43.5776
353.68	75.6853
357.054	132.003
360.429	205.435
363.804	342.685
367.179	621.578
370.554	860.384
373.928	477.448
377.303	181.048
380.678	87.0764
384.053	82.2141
387.428	113.485
390.803	166.731
394.177	264.852
397.552	502.543
400.927	845.191
404.302	518.945
407.677	262.116
411.051	78.0725
414.426	31.5044
417.801	15.8499
421.176	7.43946
424.551	5.35365
427.926	0.841835
431.3	1.23527
434.675	4.59833
438.05	7.43822
441.425	1.51214
444.8	0.403481
448.174	0.749146
451.549	0.92408
454.924	1.402
458.299	1.65282
461.674	0.609283
465.048	0.914581
468.423	0.23159
471.798	0.364456
475.173	1.37109
478.548	4.38071
481.923	6.02544
485.297	2.87027
488.672	1.30913
492.047	0.602577
495.422	3.1378
498.797	3.40095
502.171	2.61297
505.546	4.31309
508.921	3.14019
512.296	3.981
515.671	5.1099
519.046	3.82603
522.42	6.87668
525.795	9.32256
529.17	16.7441
532.545	28.5988
535.92	44.8707
539.294	57.8024
542.669	83.1402
546.044	70.8027
549.419	41.521
552.794	40.3086
556.169	49.0725
559.543	46.2118
562.918	28.0617
566.293	17.7768
569.668	12.7894
573.043	10.5396
576.418	8.49894
579.792	9.95892
583.167	5.66995
586.542	4.38769
589.917	5.72322
593.292	4.01719
596.666	2.73342
600.041	1.64259
603.416	2.62366
606.791	1.61314
610.166	3.06912
613.54	2.10216
616.915	2.8263
620.29	1.29662
623.665	1.79179
627.04	1.59602
630.414	0.636627
633.789	0.423981
637.164	0.232132
640.539	0.045143
643.914	2.39287
647.289	1.00964
650.663	0.332237
654.038	1.34767
657.413	0.246025
660.788	1.52669
664.163	0.941467
667.538	0.099167
670.912	2.11968
674.287	6.14279
677.662	14.5532
681.037	26.8056
684.412	47.1674
687.786	70.994
691.161	79.9256
694.536	48.7877
697.911	33.3275
701.286	36.4014
704.66	54.11
708.035	83.4679
711.41	126.066
714.785	171.166
718.16	166.84
721.534	91.7125
724.909	41.1207
728.284	17.202
731.659	4.55113
735.034	0.758026
738.409	1.87747
741.783	0.855911
745.158	7.29781
748.533	16.7076
751.908	28.9535
755.283	33.3067
758.658	35.2647
762.032	48.7322
765.407	81.3459
768.782	139.709
772.157	233.58
775.532	373.783
778.906	562.357
782.281	621.498
785.656	405.265
789.031	212.318
792.406	117.939
795.78	74.0721
799.155	46.7543
802.53	28.9833
805.905	16.7485
809.28	9.98123
812.654	4.88138
816.029	3.30428
819.404	1.25771
822.779	0.603683
826.154	0.714661
829.529	4.06897
832.903	3.77455
836.278	0.88942
839.653	6.353
843.028	13.7573
846.403	25.643
849.778	41.147
853.152	62.3064
856.527	67.9182
859.902	50.1331
863.277	26.7356
866.652	14.0332
870.026	6.4958
873.401	3.30851
876.776	1.28476
880.151	0.364639
883.526	0.489586
886.9	0.402245
890.275	0.828239
893.65	1.23223
897.025	1.78745
900.4	1.12367
903.775	4.46206
907.149	6.89626
910.524	8.20004
913.899	10.5748
917.274	11.3731
920.649	13.3067
924.024	12.8305
927.398	12.5912
930.773	10.7185
934.148	11.2604
937.523	9.50928
940.898	6.96734
944.272	6.86594
947.647	3.55746
951.022	2.28784
954.397	2.4501
957.772	3.94563
961.146	5.52823
964.521	7.67732
967.896	9.70148
971.271	16.3357
974.646	14.8087
978.021	6.42672
981.395	4.69598
984.77	1.94311
988.145	0.661667
991.52	1.08122
994.895	0.64193
998.269	0.589645
1001.64	0.034569
1005.02	0.599739
1008.39	0.500427
1011.77	0.280487
1015.14	0.251625
1018.52	0.286003
1021.89	0.706528
1025.27	0.579338
1028.64	1.41639
1032.02	1.86028
1035.39	2.46342
1038.77	2.75519
1042.14	2.72955
1045.52	3.40643
1048.89	4.71278
1052.27	4.6786
1055.64	4.29921
1059.02	5.8167
1062.39	7.72272
1065.77	6.83686
1069.14	7.59236
1072.52	6.2401
1075.89	5.75291
1079.27	4.61247
1082.64	5.0797
1086.02	4.66453
1089.39	3.63109
1092.76	4.37472
1096.14	4.20267
1099.51	1.91531
1102.89	2.90221
1106.26	3.99152
1109.64	2.42286
1113.01	2.47487
1116.39	0.706848
1119.76	0.754387
1123.14	0.316307
1126.51	1.13746
1129.89	0.303772
1133.26	0.064163
1136.64	2.29866
1140.01	4.22978
1143.39	5.4398
1146.76	6.54452
1150.14	10.7845
1153.51	13.9431
1156.89	17.1262
1160.26	21.4881
1163.63	26.2338
1167.01	34.9918
1170.38	40.5458
1173.76	47.7701
1177.13	58.3903
1180.51	69.6234
1183.88	81.34
1187.26	95.9836
1190.63	111.066
1194.01	115.387
1197.38	112.294
1200.76	94.2415
1204.13	73.5796
1207.51	56.7418
1210.88	42.8646
1214.26	33.8663
1217.63	25.1727
1221.01	19.0495
1224.38	12.9018
1227.76	9.49907
1231.13	5.17929
1234.51	4.47335
1237.88	4.03335
1241.26	3.64079
1244.63	2.21369
1248.01	2.25786
1251.38	1.63049
1254.76	0.249557
1258.13	0.082588
1261.51	0.621925
1264.88	0.351288
1268.26	0.021858
1271.63	0.491493
1275	0.649887
1278.38	1.6077
1281.75	2.51646
1285.13	3.40753
1288.5	1.73084
1291.88	1.50153
1295.25	1.36864
1298.63	1.61418
1302	0.146866
