Measurement: Raman, 532 nm, unoriented, Raman Data Processed
Mineral: Yttrotungstite-(Y)
Rruff sample: R050569
Ideal chemistry: YW_2_O_6_(OH)_3_
Locality: Perak, Malaysia
Source: University of Arizona Mineral Museum
Description: Colorless flattened lathlike crystals
Measured chemistry: (Y_0.70_Nd_0.10_Ce_0.07_Dy_0.07_La_0.04_Ca_0.02_)_Σ=1_W_2.00_(O_6.00_(OH)_2.98_(H_2_O)_0.02_)_Σ=9_ ; O, OH and H_2_O estimated by difference and charge balance.
Raman shift (cm-1)	intensity
173.805	0
176.698	166.844
179.591	120.539
182.483	194.094
185.376	383.371
188.269	566.555
191.161	695.969
194.054	795.012
196.947	999.543
199.84	1070.65
202.732	1314.43
205.625	1429.79
208.518	1330.62
211.41	1349.71
214.303	1163.62
217.196	849.785
220.089	843.363
222.981	614.797
225.874	616.078
228.767	414.644
231.659	133.371
234.552	88.543
237.445	102.133
240.337	3.58594
243.23	125.75
246.123	60.9297
249.015	175.133
251.908	236.738
254.801	496.723
257.693	310.379
260.586	417.93
263.479	547.492
266.372	642.016
269.264	812.488
272.157	945.312
275.05	903.438
277.942	552.242
280.835	398.738
283.728	134.637
286.62	54.2188
289.513	166.195
292.406	177.074
295.299	144.695
298.191	302.898
301.084	204.269
303.977	228.07
306.869	396.731
309.762	62.3945
312.655	71.9062
315.548	86.1836
318.44	79.0508
321.333	14.5742
324.226	155.816
327.118	179.516
330.011	158
332.904	351.637
335.796	413.508
338.689	143.746
341.582	331.391
344.474	261.312
347.367	262.894
350.26	270.898
353.152	279.184
356.045	531.422
358.938	768.246
361.831	645.648
364.723	1161.71
367.616	1196.42
370.509	1417.14
373.401	1238.01
376.294	746.231
379.187	696.285
382.079	605.219
384.972	541.969
387.865	680.797
390.758	892.094
393.65	898.539
396.543	962.918
399.436	962.727
402.328	498.184
405.221	366.977
408.114	85.6602
411.007	46.957
413.899	81.332
416.792	47.8477
419.685	146.379
422.577	242.902
425.47	116.176
428.363	126.141
431.255	122.715
434.148	5.79297
437.041	167.465
439.933	119.219
442.826	109.519
445.719	19.1094
448.612	22.9297
451.504	16.3086
454.397	97.9688
457.29	90.9375
460.182	17.5234
463.075	94.6172
465.968	249.461
468.86	257.789
471.753	193.086
474.646	188.609
477.538	318.836
480.431	130.352
483.324	332.594
486.217	543.703
489.109	499.07
492.002	561.562
494.895	663.023
497.787	800.281
500.68	845.633
503.573	885.273
506.466	862.445
509.358	993.289
512.251	1053.2
515.144	927.383
518.036	646.219
520.929	332.602
523.822	295.75
526.714	295.633
529.607	22.2656
532.5	87.6875
535.393	137.875
538.285	108.867
541.178	2.85156
544.071	114.016
546.963	142.867
549.856	323.273
552.749	569.312
555.641	824.148
558.534	862.883
561.427	1036.98
564.319	903.141
567.212	588.328
570.105	140.219
572.998	172.203
575.89	114.164
578.783	107.992
581.676	26.3047
584.568	42.2656
587.461	78.7344
590.354	85.5391
593.246	150.789
596.139	0.015625
599.032	156.484
601.924	338.438
604.817	207.57
607.71	164.172
610.603	519.375
613.495	306.734
616.388	328.133
619.281	480.258
622.173	325.961
625.066	288.953
627.959	402.742
630.851	583.023
633.744	325.695
636.637	295.023
639.53	284.641
642.422	596.75
645.315	477.258
648.208	665.367
651.1	374.352
653.993	628.609
656.886	404.625
659.779	649.242
662.671	472.773
665.564	617.125
668.457	354.242
671.349	681.852
674.242	506.594
677.135	784.891
680.027	979.102
682.92	1129.27
685.813	1795.72
688.705	1896.24
691.598	2146.79
694.491	2497.07
697.384	2299.74
700.276	1871.92
703.169	1943.66
706.062	1730.56
708.954	1419.31
711.847	1483.29
714.74	1238.33
717.632	1015.78
720.525	743.289
723.418	626.094
726.311	237.68
729.203	196.43
732.096	139.469
734.989	267.945
737.881	143.422
740.774	22.8359
743.667	120.359
746.559	13.0469
749.452	96.0312
752.345	1.21875
755.237	146.305
758.13	147.664
761.023	4.39062
763.916	113.469
766.808	95.4766
769.701	112.562
772.594	13.875
775.486	57.2891
778.379	38.0469
781.272	248.188
784.164	283.938
787.057	466.031
789.95	630.531
792.843	518.914
795.735	432.914
798.628	452.148
801.521	330.078
804.413	211.578
807.306	56.9062
810.199	325.016
813.091	25.6875
815.984	269.484
818.877	105.852
821.769	244.062
824.662	366.469
827.555	616.086
830.448	841.25
833.34	1383.57
836.233	2167.39
839.126	3179.44
842.018	4379.27
844.911	5695.81
847.804	6558.28
850.697	6844.43
853.589	5927.11
856.482	4953.34
859.375	3852.12
862.267	2837.87
865.16	2570.75
868.053	2275.09
870.945	1583.86
873.838	1040.13
876.731	723.539
879.624	415.609
882.516	75
885.409	3.41406
888.302	40.1484
891.194	163.438
894.087	108.922
896.98	204.82
899.872	190.102
902.765	143.867
905.658	354.156
908.551	539.227
911.443	759.484
914.336	1338.09
917.229	1706.88
920.121	2114.43
923.014	2763.18
925.907	3030.05
928.799	3557.25
931.692	4904.52
934.585	6982.32
937.477	9991.42
940.37	13375
943.263	16338.9
946.155	16649.6
949.048	14324.2
951.941	10516.5
954.834	6854.15
957.726	4668.08
960.619	3387.42
963.512	2069.19
966.404	1698.92
969.297	1421.11
972.19	900.727
975.082	585.844
977.975	662.352
980.868	318.656
983.761	420.508
986.653	252.719
989.546	60.7109
992.439	143.875
995.331	144.508
998.224	124.555
1001.12	78.0391
1004.01	4.86719
1006.9	160.414
1009.79	57.0078
1012.69	177.75
1015.58	156.93
1018.47	235.938
1021.37	12.6172
1024.26	269.664
1027.15	282.211
1030.04	42.4297
1032.94	125.891
1035.83	151.695
1038.72	221.828
1041.62	126.781
1044.51	117.609
1047.4	57.125
1050.29	209.188
1053.18	141.836
1056.08	49.4219
1058.97	90.5625
1061.86	478.805
1064.76	296.844
1067.65	238.359
1070.54	212.086
1073.43	227.992
1076.33	34.6406
1079.22	499.188
1082.11	356.43
1085.01	236.172
1087.9	341.781
1090.79	123.633
1093.68	486.445
1096.58	275.453
1099.47	65.5859
1102.36	23.0312
1105.25	354.445
1108.15	102.609
1111.04	49.2656
1113.93	107.828
1116.83	11.0469
1119.72	166.102
1122.61	291.117
1125.5	106.469
1128.4	274.516
1131.29	67.8516
1134.18	185.898
1137.07	125.938
1139.97	354.984
1142.86	342.062
1145.75	190.07
1148.64	305.57
1151.54	481.156
1154.43	416.023
1157.32	335.5
1160.21	422.625
1163.11	339.703
1166	367.242
1168.89	465.117
1171.79	473.711
1174.68	154.922
1177.57	423.555
1180.46	476.289
1183.36	137.875
1186.25	429.344
1189.14	435.312
1192.04	571.516
1194.93	543.078
1197.82	595.461
1200.71	112.367
1203.61	442.68
1206.5	428.68
1209.39	284.164
1212.28	239.133
1215.18	266.055
1218.07	322.945
1220.96	323.68
1223.85	484.141
1226.75	118.484
1229.64	37.0312
1232.53	225.492
1235.42	105.938
1238.32	209.539
1241.21	22.1641
1244.1	88.0469
1247	138.023
1249.89	517.727
1252.78	373.094
1255.67	76.2812
1258.57	155.133
1261.46	189.742
1264.35	293.359
1267.24	81.7031
1270.14	15.4609
1273.03	166.445
1275.92	266.391
1278.82	32.2969
