Measurement: Raman, 780 nm, unoriented, Raman Data Processed
Mineral: Yttrium aluminum garnet
Rruff sample: R150067
Ideal chemistry: Y_3_Al_2_(AlO_4_)_3_
Locality: Synthetic
Source: Martin Zinn
Description: Colorless transparent fragment
Raman shift (cm-1)	intensity
91.5599	0
94.9347	192.078
98.3096	289.152
101.684	447.446
105.059	696.019
108.434	960.995
111.809	969.03
115.184	1061.39
118.558	1378.1
121.933	1759.34
125.308	1481.07
128.683	1134.95
132.058	756.64
135.433	406.072
138.807	54.2151
142.182	81.999
145.557	238.713
148.932	364.753
152.307	284.092
155.681	3.38721
159.056	199.002
162.431	495.509
165.806	955.871
169.181	1561.15
172.555	2516.04
175.93	3894.4
179.305	5461.27
182.68	7615.49
186.055	10347
189.43	13466.3
192.804	16034.2
196.179	15848.2
199.554	13406.2
202.929	12087.9
206.304	12243.8
209.678	11580.3
213.053	9192.37
216.428	7203.43
219.803	6862.56
223.178	8426.09
226.553	11227
229.927	15033.9
233.302	20269.9
236.677	25726.7
240.052	30663.9
243.427	30676.3
246.801	24990.1
250.176	17429.9
253.551	11376.9
256.926	6863.8
260.301	3963.1
263.675	1960.68
267.05	540.758
270.425	102.891
273.8	190.397
277.175	631.411
280.55	2249.76
283.924	4950.23
287.299	8655.98
290.674	12791.3
294.049	15339.9
297.424	13711.9
300.798	9853.98
304.173	6922.66
307.548	5121.38
310.923	3992.47
314.298	3327.96
317.673	3019.67
321.047	2875.78
324.422	2732.63
327.797	2455.64
331.172	1364.26
334.547	39.6035
337.921	868.582
341.296	1241.37
344.671	1107.01
348.046	494.101
351.421	823.587
354.796	2489.57
358.17	4731.81
361.545	7645.95
364.92	11252
368.295	15617.4
371.67	20870.7
375.044	26630.3
378.419	32505.4
381.794	38170.2
385.169	40884.9
388.544	39162.9
391.918	36410.8
395.293	32693.5
398.668	27954.5
402.043	24982.6
405.418	24700
408.793	25022.1
412.167	24646.9
415.542	24816.2
418.917	27659.7
422.292	32593.3
425.667	39008.2
429.041	43857.7
432.416	46058.4
435.791	48498.6
439.166	56386.3
442.541	69586.7
445.915	79068.4
449.29	72618.1
452.665	54936.5
456.04	37628.6
459.415	24052.4
462.789	14203.9
466.164	6951.82
469.539	2225.72
472.914	565.953
476.289	1600.71
479.664	623.266
483.038	2728.4
486.413	8150.47
489.788	15572.5
493.163	23400.8
496.538	30249.7
499.913	35978.1
503.287	40483.1
506.662	44592.8
510.037	48338.3
513.412	51013.2
516.787	50516.6
520.161	43893.8
523.536	32324.7
526.911	20558.4
530.286	11580.1
533.661	5156.85
537.035	1285.11
540.41	433.418
543.785	1071.76
547.16	592.025
550.535	761.836
553.909	3642.41
557.284	8181.31
560.659	13925.2
564.034	21576.3
567.409	30997.7
570.784	41590
574.158	53690.4
577.533	65810.9
580.908	72848.6
584.283	70163.2
587.658	56828.7
591.033	39426
594.407	24899.5
597.782	14780.7
601.157	7852.47
604.532	3239.03
607.907	512.029
611.281	515.469
614.656	488.875
618.031	698.223
621.406	3538.15
624.781	8240.93
628.155	15424.6
631.53	24871.6
634.905	37233.7
638.28	51441.1
641.655	65100.3
645.029	72997
648.404	68330.2
651.779	53168.7
655.154	35897.5
658.529	22567.7
661.904	13753.9
665.278	8276.86
668.653	5306.09
672.028	3709.99
675.403	3410.95
678.778	4204.55
682.153	5803.84
685.527	7869.53
688.902	9655.98
692.277	10711.3
695.652	10832.2
699.027	9899.36
702.401	8431.23
705.776	6476.72
709.151	4370.63
712.526	2764.28
715.901	1333.81
719.275	322.772
722.65	384.305
726.025	621.546
729.4	384.076
732.775	335.897
736.149	1627.08
739.524	3690.87
742.899	6390.57
746.274	9474.2
749.649	12547
753.024	15169.4
756.398	16675.4
759.773	16981.6
763.148	16068.4
766.523	14339.6
769.898	12116.6
773.273	9707.35
776.647	7568.48
780.022	5691.84
783.397	3993.08
786.772	2520.71
790.146	1514.5
793.521	758.975
796.896	287.556
800.271	119.814
803.646	61.8887
807.021	34.1211
810.395	65.9863
813.77	129.72
817.145	238.707
820.52	485.168
823.895	711.094
827.269	1043.94
830.644	1582.7
834.019	1949.82
837.394	2383.58
840.769	2400.21
844.144	2220.68
847.518	1895.79
850.893	1354.26
854.268	920.625
857.643	515.004
861.018	289.64
864.393	74.0488
867.767	23
871.142	5.09863
874.517	14.8516
877.892	43.499
881.266	59.294
884.641	40.0176
888.016	143.133
891.391	346.596
894.766	465.293
898.141	599.582
901.515	621.935
904.89	519.079
908.265	546.815
911.64	425.457
915.015	360.647
918.389	366.265
921.764	303.149
925.139	213.551
928.514	234.984
931.889	307.369
935.264	293.947
938.638	273.073
942.013	182.674
945.388	207.036
948.763	93.8867
952.138	164.946
955.512	268.745
958.887	536.047
962.262	785.17
965.637	1130.79
969.012	1544.59
972.386	2004
975.761	2407.2
979.136	2706.43
982.511	2870.49
985.886	2815.02
989.261	2549.83
992.635	2222.57
996.01	1854.47
999.385	1592.86
1002.76	1255.7
1006.13	1005.9
1009.51	681.565
1012.88	262.408
1016.26	177.018
1019.63	0.018555
1023.01	139.201
1026.38	270.315
1029.76	204.56
1033.13	176.557
1036.51	490.332
1039.88	1207.24
1043.26	2438.48
1046.63	3415.44
1050.01	3033.65
1053.38	2627.6
1056.76	2430.01
1060.13	2567.27
1063.51	2281.38
1066.88	2082.61
1070.26	2278.58
1073.63	3220.89
1077.01	5080.48
1080.38	8700.21
1083.76	14447.2
1087.13	23074.4
1090.51	33426.9
1093.88	38323.4
1097.26	31466
1100.63	19064.3
1104	10322.3
1107.38	5772.94
1110.75	3257.66
1114.13	1854.85
1117.5	874.037
1120.88	365.293
1124.25	1.73633
1127.63	260.898
1131	153.076
1134.38	406.522
1137.75	1112.95
1141.13	2333.73
1144.5	3594.71
1147.88	3624.02
1151.25	2026.3
1154.63	907.391
1158	886.182
1161.38	1639.81
1164.75	2725.66
1168.13	4008.18
1171.5	4840.06
1174.88	5162.34
1178.25	5307.85
1181.62	5097.43
1185	4882.91
1188.38	4709.06
1191.75	4448.33
1195.12	4015.05
1198.5	4069.77
1201.87	4126.86
1205.25	3548.69
1208.62	2769.22
1212	1846.62
1215.37	1222.89
1218.75	1265.73
1222.12	2331.73
1225.5	4969.5
1228.87	11497.7
1232.25	22259.4
1235.62	29310.1
1239	22770.1
1242.37	11988.8
1245.75	5613.04
1249.12	2546.24
1252.5	209.703
1255.87	679.93
1259.25	534.562
1262.62	3229.45
1265.99	5946.24
1269.37	6424.63
1272.74	3188.51
1276.12	2250.17
1279.49	1455.33
1282.87	722.109
