Measurement: Raman, 532 nm, unoriented, Raman Data Processed
Mineral: Yttrium aluminum garnet
Rruff sample: R110105
Ideal chemistry: Y_3_Al_2_(AlO_4_)_3_
Locality: Synthetic
Source: Gemological Institute of America
Description: A cut, green (2.71ct) gemstone, grown by crystal pulling
Raman shift (cm-1)	intensity
122.794	0
126.169	2.43603
129.544	3.7478
132.918	31.6186
136.293	54.9578
139.668	92.2881
143.043	141.625
146.418	186.216
149.792	226.981
153.167	311.899
156.542	389.694
159.917	522.026
163.292	610.358
166.667	469.004
170.041	512.631
173.416	545.484
176.791	628.117
180.166	486.575
183.541	321.489
186.916	218.967
190.29	152.936
193.665	90.5852
197.04	46.4619
200.415	45.531
203.79	51.7288
207.164	63.3005
210.539	81.896
213.914	137.624
217.289	278.432
220.664	133.043
224.038	9.86426
227.413	20.8857
230.788	9.07544
234.163	0.144531
237.538	37.5198
240.913	115.666
244.287	296.097
247.662	418.65
251.037	596.521
254.412	923.262
257.787	1566.88
261.161	1765.59
264.536	501.348
267.911	177.599
271.286	107.269
274.661	92.7488
278.036	87.2092
281.41	73.9685
284.785	63.0413
288.16	47.8921
291.535	89.7495
294.91	102.096
298.284	38.0779
301.659	7.8667
305.034	9.93774
308.409	13.2593
311.784	4.12231
315.159	12.4768
318.533	1.04272
321.908	22.4404
325.283	49.3179
328.658	85.9255
332.033	163.656
335.408	282.339
338.782	403.044
342.157	216.68
345.532	74.0906
348.907	73.6736
352.281	139.405
355.656	293.651
359.031	478.779
362.406	685.322
365.781	1064.24
369.156	1549.84
372.53	1199.08
375.905	487.245
379.28	199.701
382.655	146.191
386.03	198.253
389.404	291.487
392.779	448.752
396.154	699.352
399.529	1119.48
402.904	996.827
406.279	676.781
409.653	243.625
413.028	88.281
416.403	42.2375
419.778	20.7644
423.153	0.237305
426.527	3.58569
429.902	1.5686
433.277	8.93286
436.652	6.51147
440.027	0.10498
443.402	5.52637
446.776	2.46289
450.151	7.36523
453.526	0.714111
456.901	9.15625
460.276	14.2485
463.651	1.7605
467.025	2.10864
470.4	3.0166
473.775	9.07837
477.15	11.8008
480.525	15.0552
483.899	8.96289
487.274	10.561
490.649	6.43726
494.024	15.408
497.399	18.8154
500.774	21.9285
504.148	17.0342
507.523	13.8386
510.898	5.07812
514.273	14.6555
517.648	3.99634
521.022	15.5044
524.397	20.9724
527.772	39.8076
531.147	61.8821
534.522	86.5718
537.896	120.343
541.271	167.779
544.646	190.928
548.021	117.786
551.396	95.6006
554.771	86.1101
558.145	91.4612
561.52	62.4714
564.895	36.8887
568.27	26.354
571.645	24.8845
575.019	23.373
578.394	25.2012
581.769	29.7036
585.144	25.9002
588.519	34.2739
591.894	28.4114
595.268	27.28
598.643	23.0684
602.018	20.0049
605.393	19.687
608.768	16.8494
612.142	11.9934
615.517	11.9582
618.892	12.438
622.267	7.22339
625.642	0.848633
629.016	1.69873
632.391	0.970703
635.766	10.2075
639.141	7.25684
642.516	0.486328
645.891	0.248535
649.265	0.142578
652.64	0.255615
656.015	0.188232
659.39	2.62769
662.765	2.20435
666.139	1.21045
669.514	7.54956
672.889	16.9273
676.264	29.8289
679.639	65.9119
683.014	114.341
686.388	156.905
689.763	199.262
693.138	155.674
696.513	106.11
699.888	81.8938
703.263	117.728
706.637	166.446
710.012	256.226
713.387	343.658
716.762	379.546
720.136	256.559
723.511	122.942
726.886	60.8645
730.261	32.3762
733.636	11.6287
737.011	1.83252
740.385	12.1733
743.76	16.5156
747.135	38.1833
750.51	63.3682
753.885	78.7004
757.26	91.2893
760.634	102.029
764.009	136.735
767.384	234.429
770.759	384.238
774.134	579.749
777.508	820.234
780.883	979.48
784.258	756.516
787.633	412.853
791.008	225.031
794.383	136.393
797.757	78.4783
801.132	44.99
804.507	21.074
807.882	26.1834
811.257	0.691406
814.631	5.70386
818.006	5.17749
821.381	10.1096
824.756	2.60229
828.131	10.491
831.505	0.631104
834.88	7.93433
838.255	1.29321
841.63	19.7541
845.005	38.2642
848.38	86.553
851.754	117.82
855.129	154.825
858.504	134.958
861.879	82.1912
865.254	48.271
868.629	21.0115
872.003	24.5305
875.378	21.4612
878.753	13.1668
882.128	6.92871
885.503	14.8901
888.877	9.17847
892.252	8.97119
895.627	6.57373
899.002	6.95459
902.377	9.5896
905.751	20.3389
909.126	24.9663
912.501	28.0415
915.876	33.6013
919.251	30.2454
922.625	34.8914
926	39.984
929.375	12.2816
932.75	11.4534
936.125	27.8645
939.5	4.3396
942.875	12.0486
946.249	10.5985
949.624	6.99719
952.999	11.5704
956.374	19.1721
959.749	21.7346
963.123	35.9116
966.498	52.8535
969.873	58.9204
973.248	60.9534
976.623	35.9836
979.997	23.4985
983.372	16.9993
986.747	12.6814
990.122	2.76538
993.497	8.36646
996.871	14.5022
1000.25	5.18848
1003.62	3.23267
1007	4.74609
1010.37	15.8413
1013.75	3.61621
1017.12	3.86548
1020.5	18.467
1023.87	12.5503
1027.24	14.5422
1030.62	9.12622
1033.99	15.3411
1037.37	17.9885
1040.74	5.46069
1044.12	9.78125
1047.49	14.2756
1050.87	7.36816
1054.24	0.605713
1057.62	19.0559
1060.99	27.218
1064.37	25.2522
1067.74	21.3152
1071.12	17.1931
1074.49	10.4524
1077.87	22.502
1081.24	13.4785
1084.62	14.176
1087.99	15.5835
1091.37	27.4551
1094.74	29.1736
1098.12	24.3716
1101.49	32.6873
1104.87	20.8176
1108.24	21.3479
1111.62	25.3892
1114.99	20.3125
1118.37	13.1492
1121.74	16.6067
1125.12	14.5925
1128.49	13.084
1131.86	8.78247
1135.24	7.89014
1138.61	5.04297
1141.99	7.20874
1145.36	0.072266
1148.74	10.4475
1152.11	3.81299
1155.49	11.3123
1158.86	3.63354
1162.24	3.22266
1165.61	9.17822
1168.99	7.29492
1172.36	9.64087
1175.74	13.2261
1179.11	14.8721
1182.49	25.8711
1185.86	40.782
1189.24	40.063
1192.61	42.2078
1195.99	40.0674
1199.36	38.5068
1202.73	27.311
1206.11	35.1668
1209.48	39.6043
1212.86	33.023
1216.23	27.1611
1219.61	13.8718
1222.98	16.0012
1226.36	20.3135
1229.73	20.8015
1233.11	2.58813
1236.48	7.15503
1239.86	0.957031
1243.23	10.8957
1246.61	18.0466
1249.98	9.7478
1253.36	23.4006
1256.73	23.8332
1260.11	31.273
1263.48	33.9624
1266.86	30.1016
1270.23	29.0234
1273.61	28.6482
1276.98	38.938
1280.36	21.2339
1283.73	15.9055
1287.11	12.3984
1290.48	8.37964
1293.86	0.151611
1297.23	0.742676
1300.61	0.474854
