Measurement: Raman, 532 nm, unoriented, Raman Data Processed
Mineral: Yttrium aluminum garnet
Rruff sample: R150067
Ideal chemistry: Y_3_Al_2_(AlO_4_)_3_
Locality: Synthetic
Source: Martin Zinn
Description: Colorless transparent fragment
Raman shift (cm-1)	intensity
89.7832	0
93.158	26.3325
96.5328	13.5243
99.9077	16.663
103.282	44.7927
106.657	75.4574
110.032	67.7451
113.407	33.1328
116.782	22.3137
120.157	0.878418
123.531	5.53778
126.906	1.8974
130.281	10.8795
133.656	28.1276
137.031	40.2355
140.405	84.4699
143.78	175.157
147.155	169.149
150.53	216.196
153.905	278.935
157.28	363.919
160.654	610.819
164.029	865.192
167.404	289.145
170.779	273.715
174.154	272.545
177.528	217.518
180.903	151.996
184.278	92.3494
187.653	59.5858
191.028	48.1329
194.403	62.5698
197.777	89.9318
201.152	134.33
204.527	182.722
207.902	235.109
211.277	292.115
214.651	276.361
218.026	357.573
221.401	230.823
224.776	64.8554
228.151	17.0309
231.525	7.2738
234.9	14.248
238.275	3.09906
241.65	51.1172
245.025	145.068
248.4	192.105
251.774	245.547
255.149	405.581
258.524	879.005
261.899	1383.31
265.274	509.962
268.649	285.835
272.023	221.462
275.398	169.45
278.773	118.507
282.148	71.0492
285.523	40.7597
288.897	39.3807
292.272	64.2721
295.647	76.3257
299.022	0.346802
302.397	25.9203
305.772	15.8324
309.146	10.5869
312.521	30.0011
315.896	60.467
319.271	91.832
322.646	162.829
326.02	294.776
329.395	479.259
332.77	743.325
336.145	1156.09
339.52	2022.01
342.894	1958.93
346.269	746.214
349.644	298.699
353.019	222.209
356.394	348.948
359.769	600.56
363.143	543.106
366.518	826.925
369.893	1624.85
373.268	1475.29
376.643	586.207
380.017	288.184
383.392	228.531
386.767	270.677
390.142	353.927
393.517	532.756
396.892	969.235
400.266	1976.59
403.641	2220.01
407.016	1788.76
410.391	985.045
413.766	430.323
417.14	308.803
420.515	151.657
423.89	94.6347
427.265	97.8899
430.64	24.9747
434.014	1.48682
437.389	0.981323
440.764	10.5951
444.139	12.4702
447.514	12.3685
450.889	7.5257
454.263	0.794678
457.638	9.22491
461.013	20.8709
464.388	47.3934
467.763	71.9669
471.137	51.9993
474.512	78.6479
477.887	176.435
481.262	448.632
484.637	419.667
488.012	133.831
491.386	87.3662
494.761	83.7351
498.136	97.9163
501.511	88.894
504.886	84.7234
508.26	97.1653
511.635	62.6765
515.01	37.9269
518.385	17.1701
521.76	5.10925
525.135	2.78339
528.509	2.55457
531.884	13.5363
535.259	36.6064
538.634	60.5713
542.009	98.3436
545.384	127.443
548.758	64.5956
552.133	54.4196
555.508	85.2727
558.883	134.7
562.258	111.284
565.632	55.5678
569.007	28.0289
572.382	17.7447
575.757	29.3984
579.132	36.4109
582.506	42.4843
585.881	51.5611
589.256	66.7905
592.631	82.1723
596.006	60.1975
599.381	20.5754
602.755	8.0788
606.13	4.99737
609.505	10.6822
612.88	12.0409
616.255	9.12244
619.63	3.8186
623.004	8.05396
626.379	14.4908
629.754	4.32288
633.129	5.24689
636.504	14.1372
639.878	7.44336
643.253	6.96387
646.628	24.1467
650.003	48.1009
653.378	92.376
656.752	154.124
660.127	247.674
663.502	381.953
666.877	513.601
670.252	551.175
673.626	453.614
677.001	299.473
680.376	189.453
683.751	132.984
687.126	131.272
690.501	133.454
693.875	67.8767
697.25	18.975
700.625	10.7031
704	44.7103
707.375	102.776
710.75	160.21
714.124	236.405
717.499	256.78
720.874	129.447
724.249	23.0317
727.624	12.6117
730.998	21.0702
734.373	12.0918
737.748	114.578
741.123	302.032
744.498	643.46
747.872	1154.93
751.247	1518.81
754.622	1124.87
757.997	860.812
761.372	919.463
764.747	849.436
768.121	616.874
771.496	478.895
774.871	545.356
778.246	839.486
781.621	1112.69
784.995	758.633
788.37	292.147
791.745	68.5649
795.12	0.140503
798.495	3.42627
801.87	39.3903
805.244	102.829
808.619	176.143
811.994	266.764
815.369	396.353
818.744	417.282
822.119	442.674
825.493	715.026
828.868	910.29
832.243	690.182
835.618	338.327
838.993	114.063
842.367	2.66614
845.742	16.5256
849.117	51.071
852.492	154.24
855.867	274.205
859.241	392.019
862.616	468.97
865.991	378.632
869.366	225.652
872.741	118.356
876.115	43.168
879.49	8.77515
882.865	14.7972
886.24	12.2168
889.615	18.6461
892.99	61.5541
896.364	139.459
899.739	246.106
903.114	396.999
906.489	604.019
909.864	763.008
913.239	914.347
916.613	1086.14
919.988	1266.83
923.363	1362.77
926.738	1346.44
930.113	1163.4
933.487	938.005
936.862	696.488
940.237	508.353
943.612	368.025
946.987	263.846
950.361	211.78
953.736	199.06
957.111	230.294
960.486	351.313
963.861	587.642
967.236	1015.89
970.61	1769.94
973.985	2176.68
977.36	1359.36
980.735	633.155
984.11	295.341
987.485	137.775
990.859	57.2023
994.234	13.0364
997.609	3.30066
1000.98	7.69812
1004.36	10.1437
1007.73	7.93042
1011.11	8.76099
1014.48	0.306885
1017.86	9.81885
1021.23	21.6272
1024.61	40.0122
1027.98	70.7866
1031.36	95.2671
1034.73	132.964
1038.11	174.996
1041.48	232.2
1044.86	311.76
1048.23	420.276
1051.61	532.92
1054.98	641.648
1058.36	747.08
1061.73	833.619
1065.11	892.451
1068.48	893.941
1071.86	832.787
1075.23	732.131
1078.6	598.017
1081.98	457.546
1085.35	324.601
1088.73	208.236
1092.1	107.227
1095.48	25.7903
1098.85	16.1899
1102.23	42.0247
1105.6	32.5139
1108.98	20.6323
1112.35	16.6174
1115.73	53.6213
1119.1	105.078
1122.48	162.898
1125.85	216.606
1129.23	286.812
1132.6	380.592
1135.98	489.595
1139.35	619.527
1142.73	774.824
1146.1	957.487
1149.48	1184.75
1152.85	1469.09
1156.22	1785.13
1159.6	2162.67
1162.97	2605.41
1166.35	3152.95
1169.72	3757.45
1173.1	4452.63
1176.47	5240.1
1179.85	6129.17
1183.22	7227.42
1186.6	8529.97
1189.97	9833.9
1193.35	10619.2
1196.72	10277.3
1200.1	8827.82
1203.47	6909.67
1206.85	5117.21
1210.22	3659.19
1213.6	2520.66
1216.97	1641.37
1220.35	988.061
1223.72	518.942
1227.1	214.49
1230.47	71.193
1233.85	20.3949
1237.22	3.81323
1240.6	17.8392
1243.97	34.8196
1247.35	25.0456
1250.72	6.21582
1254.1	13.754
1257.47	41.7227
1260.85	74.2316
1264.22	113.981
1267.59	159.878
1270.97	180.334
1274.34	148.913
1277.72	106.698
1281.09	82.4833
1284.47	67.0566
1287.84	48.3549
1291.22	31.7147
1294.59	20.7786
1297.97	11.4155
1301.34	1.90649
