Measurement: Raman, 532 nm, unoriented, Raman Data Processed
Mineral: Yttrotungstite-(Y)
Rruff sample: R060965
Ideal chemistry: YW_2_O_6_(OH)_3_
Locality: Perak, Malaya
Source: Michael Scott
Description: Groups of parallel orange bladed crystals, the cell is too small. Needs to be redone
Measured chemistry: (Y_0.70_Ce_0.19_Nd_0.11_)_Î£=1_W_2.00_O_6_(OH)_3_
Raman shift (cm-1)	intensity
120.559	0
123.934	555.962
127.308	606.866
130.683	295.638
134.058	14.0088
137.433	45.1416
140.808	12.9341
144.183	19.2212
147.557	78.4673
150.932	604.938
154.307	1618.15
157.682	3088.23
161.057	4599.47
164.431	4659.73
167.806	3600.43
171.181	3300.34
174.556	3523.16
177.931	3592.11
181.305	3335.39
184.68	3051.65
188.055	2986.68
191.43	3075.32
194.805	3079.71
198.179	3145.71
201.554	3324.94
204.929	4053.92
208.304	4957.59
211.679	5283.87
215.054	4559.15
218.428	3669.14
221.803	3494.64
225.178	3554.58
228.553	3298.86
231.928	2666.5
235.303	1761.53
238.677	914.053
242.052	282.41
245.427	25.7788
248.802	94.7539
252.177	107.907
255.551	54.7725
258.926	47.125
262.301	335.764
265.676	849.627
269.051	1723.62
272.425	2595.07
275.8	3118.89
279.175	2838.77
282.55	2086.01
285.925	1693.91
289.3	1555.54
292.674	1767.76
296.049	2077.78
299.424	2457.22
302.799	2636.04
306.174	2592.67
309.548	2050.01
312.923	1317.95
316.298	695.418
319.673	153.856
323.048	41.2007
326.422	8.33984
329.797	112.336
333.172	222.16
336.547	272.622
339.922	265.059
343.296	205.66
346.671	94.3799
350.046	157.381
353.421	455.481
356.796	899.557
360.171	1787.97
363.545	3086.83
366.92	4390.09
370.295	5476.36
373.67	5429.74
377.045	4319.14
380.419	3050.61
383.794	2402.58
387.169	2452.51
390.544	2930.69
393.919	3568.96
397.293	4058.97
400.668	3786.28
404.043	2774.72
407.418	1633.29
410.793	897.053
414.168	369.914
417.542	105.899
420.917	68.646
424.292	94.146
427.667	50.5557
431.042	223.332
434.416	321.902
437.791	503.4
441.166	571.212
444.541	658.183
447.916	646.602
451.291	723.928
454.665	800.102
458.04	922.226
461.415	952.5
464.79	935.919
468.165	900.105
471.539	848.366
474.914	815.927
478.289	787.136
481.664	988.967
485.039	1237.7
488.413	1512.96
491.788	1768.73
495.163	2012.06
498.538	2157.27
501.913	2261.71
505.288	2481.04
508.662	2558.31
512.037	2596.47
515.412	2245.87
518.787	1701.12
522.162	1087.52
525.536	502.511
528.911	210.474
532.286	77.9912
535.661	50.3188
539.036	105.599
542.41	45.6108
545.785	63.8687
549.16	44.1777
552.535	201.909
555.91	343.067
559.284	514.991
562.659	638.038
566.034	519.985
569.409	324.892
572.784	190.816
576.159	151.865
579.533	198.774
582.908	252.49
586.283	287.698
589.658	418.858
593.033	430.144
596.408	436.811
599.782	466.349
603.157	522.675
606.532	543.73
609.907	584.996
613.282	644.224
616.656	573.987
620.031	594.576
623.406	569.51
626.781	525.25
630.156	459.25
633.53	366.486
636.905	280.102
640.28	132.484
643.655	63.3242
647.03	8.97803
650.404	58.6328
653.779	51.5498
657.154	87.3677
660.529	47.3682
663.904	81.3813
667.279	191.017
670.653	339.326
674.028	390.519
677.403	863.261
680.778	1067.14
684.153	1633.73
687.528	2293.43
690.902	3000.52
694.277	3380.33
697.652	3390.7
701.027	2929.13
704.402	2560.09
707.776	2392.45
711.151	2171.62
714.526	1958.67
717.901	1511.59
721.276	1086.39
724.65	721.296
728.025	465.095
731.4	297.203
734.775	176.839
738.15	25.1939
741.524	33.3477
744.899	2.08789
748.274	6.93066
751.649	93.6846
755.024	78.5391
758.399	39.9263
761.773	25.002
765.148	73.2656
768.523	148.003
771.898	331.173
775.273	384.26
778.648	530.547
782.022	686.495
785.397	840.45
788.772	912.411
792.147	909.341
795.521	838.082
798.896	645.514
802.271	505.024
805.646	442.58
809.021	318.858
812.396	292.062
815.77	217.608
819.145	326.568
822.52	441.27
825.895	752.582
829.27	1179.59
832.644	1903.78
836.019	2900.24
839.394	4419.25
842.769	6375.57
846.144	9024.11
849.519	11502.5
852.893	12535.9
856.268	10880.2
859.643	8468.26
863.018	6898.36
866.393	6100.24
869.767	4961.19
873.142	3080.83
876.517	1611.84
879.892	671.681
883.267	200.863
886.641	17.4922
890.016	169.977
893.391	69.5703
896.766	25.9111
900.141	93.0142
903.516	389.166
906.89	808.991
910.265	1428.46
913.64	2158.82
917.015	3309.61
920.39	4731.81
923.764	6456.09
927.139	8284.45
930.514	10979.9
933.889	15874.8
937.264	24064
940.639	35234.6
944.013	47317.4
947.388	52552.3
950.763	42220.7
954.138	26732.7
957.513	16598.8
960.887	10976.5
964.262	7774.33
967.637	5604.06
971.012	3967.8
974.387	2767.71
977.761	1736.61
981.136	1089.56
984.511	620.335
987.886	386.46
991.261	178.43
994.635	124.703
998.01	83.5454
1001.38	29.5381
1004.76	9.47607
1008.13	83.7173
1011.51	4.0874
1014.88	57.2739
1018.26	22.4673
1021.63	22.5771
1025.01	54.6543
1028.38	59.3862
1031.76	8.67871
1035.13	34.9121
1038.51	129.39
1041.88	162.279
1045.26	191.584
1048.63	254.183
1052.01	300.204
1055.38	363.007
1058.76	351.618
1062.13	382.167
1065.51	386.563
1068.88	424.883
1072.26	404.061
1075.63	248.085
1079.01	244.746
1082.38	228.289
1085.76	185.101
1089.13	160.38
1092.51	123.475
1095.88	140.443
1099.26	104.167
1102.63	88.4639
1106	55.2598
1109.38	40.4976
1112.75	14.6533
1116.13	45.7891
1119.5	7.97656
1122.88	46.2373
1126.25	7.21387
1129.63	30.7524
1133	34.1221
1136.38	36.2139
1139.75	50.502
1143.13	63.5527
1146.5	1.53955
1149.88	87.7271
1153.25	125.213
1156.63	95.1196
1160	120.966
1163.38	174.645
1166.75	98.2602
1170.13	185.09
1173.5	214.518
1176.88	230.92
1180.25	222.178
1183.62	229.073
1187	233.028
1190.38	218.04
1193.75	181.509
1197.12	195.044
1200.5	244.732
1203.87	191.666
1207.25	193.691
1210.62	187.388
1214	137.318
1217.37	171.741
1220.75	77.9844
1224.12	141.984
1227.5	89.9326
1230.87	111.915
1234.25	90.8809
1237.62	33.4145
1241	55.8965
1244.37	14.3813
1247.75	1.18897
1251.12	1.31836
1254.5	3.16211
1257.87	24.0454
1261.25	18.5649
1264.62	11.3735
1267.99	57.9717
1271.37	57.9336
1274.74	81.645
1278.12	47.3789
1281.49	80.6094
1284.87	46.2612
1288.24	74.3403
1291.62	48.2036
1294.99	45.104
1298.37	39.3857
