Measurement: Raman, 785 nm, unoriented, Raman Data Processed
Mineral: Yttrotungstite-(Y)
Rruff sample: R060965
Ideal chemistry: YW_2_O_6_(OH)_3_
Locality: Perak, Malaya
Source: Michael Scott
Description: Groups of parallel orange bladed crystals, the cell is too small. Needs to be redone
Measured chemistry: (Y_0.70_Ce_0.19_Nd_0.11_)_Î£=1_W_2.00_O_6_(OH)_3_
Raman shift (cm-1)	intensity
122.01	0
124.903	94.7203
127.796	244.03
130.688	378.183
133.581	160.974
136.474	11.1204
139.366	75.953
142.259	432.938
145.152	908.136
148.044	1195
150.937	1395.88
153.83	1569.02
156.722	1891.13
159.615	2366.78
162.508	2791.91
165.401	2858.42
168.293	2976.1
171.186	2986.04
174.079	3091
176.971	3058.21
179.864	2955.88
182.757	2648.49
185.649	2545.25
188.542	2437.14
191.435	2275.24
194.328	2079.39
197.22	1797.67
200.113	1654.14
203.006	1657.43
205.898	1847.13
208.791	2047.46
211.684	1982.66
214.577	1553.84
217.469	904.866
220.362	512.989
223.255	488.32
226.147	388.623
229.04	308.022
231.933	226.395
234.825	105.52
237.718	43.5314
240.611	-0.0902238
243.504	4.19234
246.396	8.76515
249.289	28.3002
252.182	96.3608
255.074	331.803
257.967	484.58
260.86	535.773
263.752	651.782
266.645	750.964
269.538	1012.87
272.43	1180.59
275.323	1270.73
278.216	1048.95
281.109	820.413
284.001	668.364
286.894	549.972
289.787	407.035
292.679	444.78
295.572	513.986
298.465	762.357
301.358	1275.85
304.25	1767.75
307.143	2434.36
310.036	2993.14
312.928	3551.72
315.821	4041.72
318.714	4327.94
321.606	4408.88
324.499	4322.81
327.392	4050.99
330.284	3438.72
333.177	2805.17
336.07	2263.33
338.962	1689.04
341.855	1191.47
344.748	905.564
347.641	702.766
350.533	546.624
353.426	543.963
356.319	509.679
359.211	652.528
362.104	943.438
364.997	1497.27
367.889	2025.2
370.782	2504.12
373.675	2469.33
376.568	2168.53
379.46	1634.49
382.353	1302.26
385.246	1210.18
388.138	1222.94
391.031	1521.09
393.924	1853.97
396.817	2145.96
399.709	2050.94
402.602	1509.25
405.495	906.207
408.387	535.214
411.28	309.43
414.173	156.133
417.065	69.0508
419.958	19.0405
422.851	26.6108
425.743	52.7261
428.636	8.84277
431.529	1.89648
434.422	18.3784
437.314	29.5523
440.207	11.354
443.1	9.44385
445.992	51.1665
448.885	55.3569
451.778	38.728
454.671	30.7075
457.563	86.2134
460.456	51.9824
463.349	35.9375
466.241	13.397
469.134	53.312
472.027	84.8731
474.919	169.404
477.812	206.527
480.705	247.398
483.597	346.918
486.49	504.273
489.383	650.344
492.276	780.03
495.168	883.102
498.061	1056.45
500.954	1188.97
503.846	1361.13
506.739	1618.06
509.632	1980.75
512.524	2225.82
515.417	2181.55
518.31	1916.34
521.202	1418.15
524.095	1042.66
526.988	765.692
529.881	669.532
532.773	582.138
535.666	580.837
538.559	629.236
541.451	683.89
544.344	775.789
547.237	798.497
550.13	911.529
553.022	1047.16
555.915	1123.21
558.808	1324.72
561.7	1424.65
564.593	1314.24
567.486	1059.96
570.378	843.304
573.271	657.909
576.164	592.09
579.057	474.23
581.949	417.185
584.842	416.607
587.735	386.209
590.627	405.157
593.52	373.472
596.413	373.123
599.305	391.919
602.198	428.719
605.091	433.164
607.984	428.077
610.876	453.109
613.769	412.563
616.662	407.002
619.554	342.004
622.447	291.695
625.34	268.79
628.232	270.398
631.125	196.837
634.018	137.254
636.91	151.847
639.803	114.634
642.696	68.6775
645.589	25.6853
648.481	16.8242
651.374	18.1177
654.267	47.4172
657.159	38.7151
660.052	27.4416
662.945	47.2405
665.837	35.0238
668.73	29.1461
671.623	7.5719
674.515	69.2998
677.408	137.878
680.301	265.452
683.194	418.99
686.086	652.511
688.979	896.511
691.872	1158.33
694.764	1321.68
697.657	1297.33
700.55	1202.6
703.442	1143.32
706.335	1142.84
709.228	1166.8
712.121	1199.05
715.013	1096.29
717.906	867.997
720.799	591.649
723.691	385.857
726.584	254.326
729.477	147.891
732.37	74.3344
735.262	47.7797
738.155	17.5232
741.048	27.0094
743.94	1.7417
746.833	0.160278
749.726	2.54394
752.618	7.34399
755.511	15.7277
758.404	1.09509
761.296	3.38818
764.189	4.89197
767.082	37.8843
769.975	46.0554
772.867	122.988
775.76	108.836
778.653	191.729
781.545	224.712
784.438	306.056
787.331	334.198
790.223	358.252
793.116	335.924
796.009	289.333
798.902	225.182
801.794	197.228
804.687	143.635
807.58	156.258
810.472	148.868
813.365	149.601
816.258	161.33
819.15	174.966
822.043	212.906
824.936	283.272
827.829	372.45
830.721	518.319
833.614	670.824
836.507	947.569
839.399	1291.08
842.292	1789.32
845.185	2437.63
848.077	3244.98
850.97	3911.86
853.863	4032.18
856.755	3541.86
859.648	2787.7
862.541	2320.54
865.434	2123.03
868.326	1930.44
871.219	1516.07
874.112	980.86
877.004	544.182
879.897	288.706
882.79	157.331
885.683	63.405
888.575	15.1331
891.468	24.2625
894.361	31.663
897.253	20.4781
900.146	15.047
903.039	72.9751
905.931	151.116
908.824	279.127
911.717	392.732
914.61	588.771
917.502	858.303
920.395	1166.48
923.288	1552.46
926.18	1793.69
929.073	2143.3
931.966	2734.42
934.858	3696.98
937.751	5344.04
940.644	8044.83
943.536	11398.4
946.429	13909.6
949.322	13489.7
952.215	9956.26
955.107	6475.74
958	4236.24
960.893	2923.22
963.785	2095.3
966.678	1580.28
969.571	1167.96
972.463	865.255
975.356	596.594
978.249	400.2
981.141	259.565
984.034	166.252
986.927	93.9056
989.82	42.0092
992.712	4.03394
995.605	7.02466
998.498	0.769409
1001.39	20.0859
1004.28	12.1783
1007.18	19.6491
1010.07	0.164185
1012.96	17.743
1015.85	15.2994
1018.75	20.711
1021.64	0.467346
1024.53	1.25909
1027.42	40.4597
1030.32	51.9636
1033.21	49.4186
1036.1	63.0223
1038.99	46.546
1041.89	81.3711
1044.78	86.45
1047.67	105.821
1050.57	107.663
1053.46	131.867
1056.35	148.521
1059.24	141.71
1062.14	171.731
1065.03	168.013
1067.92	170.418
1070.82	159.805
1073.71	200.612
1076.6	221.971
1079.49	218.419
1082.39	225.491
1085.28	266.342
1088.17	299.027
1091.06	292.655
1093.96	346.756
1096.85	351.968
1099.74	346.249
1102.63	372.981
1105.53	377.64
1108.42	340.896
1111.31	356.02
1114.21	380.311
1117.1	373.9
1119.99	348.918
1122.88	349.94
1125.78	370.89
1128.67	430.585
1131.56	418.389
1134.45	417.137
1137.35	378.737
1140.24	414.997
1143.13	418.759
1146.03	389.513
1148.92	406.788
1151.81	414.021
1154.7	406.133
1157.6	415.419
1160.49	328.25
1163.38	314.758
1166.27	292.72
1169.17	262.717
1172.06	233.558
1174.95	131.874
1177.85	97.0217
1180.74	28.1382
1183.63	53.4465
1186.52	41.2944
1189.42	10.3345
1192.31	56.0317
1195.2	30.4946
1198.09	94.2705
1200.99	165.082
1203.88	161.408
1206.77	161.289
1209.66	216.344
1212.56	305.697
1215.45	223.994
1218.34	260.689
1221.23	241.19
1224.13	148.306
1227.02	218.728
1229.91	172.118
1232.81	136.143
1235.7	11.6885
1238.59	3.58789
1241.48	35.1826
