Measurement: Raman, 532 nm, unoriented, Raman Data Processed
Mineral: Yugawaralite
Rruff sample: R050407
Ideal chemistry: Ca(Si_6_Al_2_)O_16_4H_2_O
Locality: Malad quarry, Mumbai, Maharashtra, India
Source: G.R. Rossman
Description: Group of colorless flat tabular crystals
Measured chemistry: Ca_1.00_(Si_6.00_Al_2.00_)O_16_Â·4H_2_O
Raman shift (cm-1)	intensity
133.816	0
137.19	0.544922
140.565	48.1046
143.94	114.735
147.315	219.325
150.69	332.283
154.065	440.431
157.439	514.298
160.814	519.204
164.189	435.013
167.564	362.592
170.939	368.546
174.313	433.915
177.688	528.838
181.063	627.604
184.438	710.656
187.813	748.405
191.187	694.393
194.562	583.416
197.937	470.158
201.312	366.448
204.687	278.36
208.061	189.845
211.436	119.057
214.811	77.8062
218.186	76.5822
221.561	90.6352
224.936	121.977
228.31	142.414
231.685	123.923
235.06	97.8194
238.435	94.288
241.81	90.6729
245.185	66.3079
248.559	20.9557
251.934	15.7649
255.309	24.6434
258.684	20.2358
262.059	3.76068
265.433	16.555
268.808	25.8529
272.183	27.5004
275.558	29.0765
278.933	31.0283
282.308	26.098
285.682	15.1989
289.057	21.0372
292.432	30.3585
295.807	47.8979
299.182	58.3792
302.556	56.8918
305.931	65.5516
309.306	81.0195
312.681	114.402
316.056	142.819
319.43	156.309
322.805	111.514
326.18	56.8493
329.555	17.6605
332.93	5.89319
336.305	24.5529
339.679	55.8604
343.054	109.561
346.429	172.07
349.804	215.475
353.179	198.007
356.553	119.838
359.928	93.208
363.303	96.0318
366.678	82.1664
370.053	42.9003
373.428	5.19254
376.802	23.947
380.177	25.2291
383.552	3.85254
386.927	44.3853
390.302	114.827
393.676	194.488
397.051	279.993
400.426	348.645
403.801	380.602
407.176	371.292
410.55	337.052
413.925	320.876
417.3	336.205
420.675	376.925
424.05	446.113
427.425	529.221
430.799	598.51
434.174	653.299
437.549	729.307
440.924	819.387
444.299	854.489
447.673	796.196
451.048	690.146
454.423	578.702
457.798	494.518
461.173	486.247
464.548	535.357
467.922	598.935
471.297	648.532
474.672	704.931
478.047	719.721
481.422	657.486
484.796	512.063
488.171	340.165
491.546	201.62
494.921	119.951
498.296	66.9773
501.671	35.3735
505.045	12.6492
508.42	0.953888
511.795	6.98242
515.17	10.5678
518.545	9.95335
521.919	4.83447
525.294	2.9341
528.669	13.127
532.044	31.3554
535.419	52.9745
538.794	82.1961
542.168	111.563
545.543	143.64
548.918	163.872
552.293	162.986
555.668	137.434
559.043	99.526
562.417	68.6388
565.792	45.3974
569.167	30.6473
572.542	17.6232
575.917	8.48334
579.291	1.99129
582.666	1.2169
586.041	1.64627
589.416	0.916397
592.791	2.00444
596.165	5.00253
599.54	10.8268
602.915	16.1355
606.29	27.3473
609.665	42.1105
613.039	62.1942
616.414	87.0675
619.789	114.052
623.164	140.988
626.539	153.586
629.914	145.079
633.288	133.891
636.663	131.393
640.038	144.405
643.413	157.033
646.788	150.223
650.163	119.761
653.537	92.9619
656.912	79.8361
660.287	80.6712
663.662	81.4935
667.037	74.5487
670.411	57.5414
673.786	42.4803
677.161	32.8978
680.536	26.9545
683.911	20.865
687.285	15.0276
690.66	12.0007
694.035	9.99477
697.41	10.0657
700.785	7.6766
704.159	4.44365
707.534	0.600334
710.909	1.48879
714.284	2.88132
717.659	1.30592
721.034	1.54956
724.408	2.42117
727.783	5.58569
731.158	11.4059
734.533	17.6343
737.908	25.591
741.283	34.4629
744.657	36.743
748.032	33.81
751.407	29.3884
754.782	27.5653
758.157	33.3155
761.531	41.0175
764.906	47.1313
768.281	51.7494
771.656	44.6752
775.031	52.1694
778.405	63.1539
781.78	81.0036
785.155	96.6124
788.53	102.917
791.905	81.4266
795.28	53.574
798.654	31.7121
802.029	19.9515
805.404	11.8046
808.779	6.40696
812.154	4.87422
815.529	3.17394
818.903	2.43308
822.278	0.897324
825.653	0.03521
829.028	0.142868
832.403	0.582199
835.777	0.109947
839.152	0.673683
842.527	0.189873
845.902	0.761787
849.277	0.102539
852.652	0.657272
856.026	0.123657
859.401	0.843666
862.776	0.740211
866.151	1.00769
869.526	0.166611
872.9	1.6702
876.275	2.77212
879.65	1.09079
883.025	1.07991
886.4	3.37281
889.774	3.96924
893.149	4.62807
896.524	4.75916
899.899	5.32975
903.274	4.57365
906.649	4.76972
910.023	4.66988
913.398	3.37276
916.773	3.57533
920.148	2.41818
923.523	1.70864
926.898	2.67409
930.272	2.56374
933.647	1.22344
937.022	1.79659
940.397	2.04341
943.771	1.35485
947.146	0.471748
950.521	3.47399
953.896	6.23761
957.271	11.0046
960.646	18.8713
964.02	28.1202
967.395	36.1867
970.77	33.9748
974.145	19.1259
977.52	11.0314
980.894	8.02351
984.269	3.51495
987.644	0.149666
991.019	1.72657
994.394	1.70662
997.769	1.00635
1001.14	3.8708
1004.52	10.2743
1007.89	14.4228
1011.27	11.9557
1014.64	6.84833
1018.02	4.53035
1021.39	2.51208
1024.77	2.16698
1028.14	1.00363
1031.52	1.38186
1034.89	0.304474
1038.27	6.58467
1041.64	11.3972
1045.02	13.3668
1048.39	9.82908
1051.77	5.20726
1055.14	4.87296
1058.52	7.17805
1061.89	7.64334
1065.27	9.37554
1068.64	7.31241
1072.02	2.03654
1075.39	0.913391
1078.76	0.160301
1082.14	2.15507
1085.51	6.40824
1088.89	13.5897
1092.26	22.2053
1095.64	30.3937
1099.01	31.1528
1102.39	28.9669
1105.76	29.8198
1109.14	36.7557
1112.51	51.3896
1115.89	74.2403
1119.26	103.91
1122.64	145.521
1126.01	182.945
1129.39	211.504
1132.76	217.348
1136.14	200.747
1139.51	168.243
1142.89	135.352
1146.26	112.761
1149.63	102.374
1153.01	102.677
1156.38	96.7784
1159.76	78.5245
1163.13	52.3328
1166.51	30.868
1169.88	18.0773
1173.26	10.8428
1176.63	4.73354
1180.01	1.75565
1183.38	0.585602
1186.76	0.644424
1190.13	0.777672
1193.51	0.492004
1196.88	1.32457
1200.26	0.133858
1203.63	3.13021
1207.01	0.116867
1210.38	0.120197
1213.76	0.269192
1217.13	1.16774
1220.51	1.37314
1223.88	1.55983
1227.26	1.70202
1230.63	1.65502
1234.01	1.75689
1237.38	3.57357
1240.76	4.17727
1244.13	4.17392
1247.51	4.73669
1250.88	3.27245
1254.26	4.59215
1257.63	3.758
1261	3.77885
1264.38	3.00558
1267.75	4.22386
1271.13	2.74701
1274.5	1.71796
1277.88	2.06315
1281.25	1.65225
1284.63	1.12568
1288	1.33995
1291.38	0.492992
