Measurement: Raman, 532 nm, unoriented, Raman Data Processed
Mineral: Yugawaralite
Rruff sample: R060568
Ideal chemistry: Ca(Si_6_Al_2_)O_16_4H_2_O
Locality: Khandivali Quarry, near Bombay, India
Source: Michael Scott
Description: Colorless fragment
Measured chemistry: Ca_1.00_(Si_6.00_Al_2.00_)O_16_Â·4H_2_O; H_2_O estimated by difference
Raman shift (cm-1)	intensity
90.2653	0
93.6401	282.932
97.0149	407.13
100.39	236.065
103.765	20.8198
107.139	10.6631
110.514	85.0601
113.889	198.942
117.264	345.551
120.639	454.804
124.013	580.417
127.388	482.779
130.763	239.047
134.138	49.575
137.513	18.9377
140.888	67.7222
144.262	187.936
147.637	366.202
151.012	573.692
154.387	800.556
157.762	1007.86
161.137	1084.25
164.511	940.654
167.886	723.138
171.261	642.411
174.636	719.675
178.011	940.467
181.385	1207.18
184.76	1493.39
188.135	1679.46
191.51	1589.01
194.885	1290.93
198.26	983.932
201.634	724.412
205.009	506.701
208.384	329.082
211.759	207.711
215.133	157.191
218.508	153.897
221.883	210.627
225.258	302.803
228.633	372.315
232.008	340.902
235.382	275.757
238.757	255.918
242.132	248.831
245.507	203.422
248.882	102.919
252.256	20.7139
255.631	13.6218
259.006	15.6675
262.381	14.1733
265.756	54.3225
269.131	83.6206
272.505	82.4534
275.88	56.6509
279.255	46.4895
282.63	21.6116
286.005	5.30029
289.38	28.3086
292.754	30.7185
296.129	3.18701
299.504	19.1165
302.879	54.3603
306.254	105.806
309.628	174.401
313.003	289.767
316.378	438.5
319.753	546.025
323.128	492.73
326.502	346.891
329.877	243.988
333.252	190.95
336.627	204.138
340.002	260.666
343.377	363.197
346.751	492.577
350.126	590.37
353.501	555.425
356.876	413.353
360.251	432.089
363.625	557.886
367	609.027
370.375	489.551
373.75	306.921
377.125	116.513
380.5	18.9644
383.874	70.7302
387.249	19.4668
390.624	109.855
393.999	279.145
397.374	490.413
400.748	732.056
404.123	887.744
407.498	880.072
410.873	750.105
414.248	633.017
417.623	609.683
420.997	652.905
424.372	748.8
427.747	882.957
431.122	959.578
434.497	1023.06
437.872	1204.09
441.246	1483.76
444.621	1732.41
447.996	1834.76
451.371	1793.97
454.745	1625.52
458.12	1266.71
461.495	1021.05
464.87	1013.03
468.245	1094.81
471.62	1101.9
474.994	1140.45
478.369	1232.54
481.744	1295.3
485.119	1148.54
488.494	788.621
491.868	464.663
495.243	254.266
498.618	132.375
501.993	60.2573
505.368	15.2246
508.743	2.59399
512.117	16.8023
515.492	19.5234
518.867	23.8579
522.242	13.219
525.617	1.27759
528.991	25.6431
532.366	59.5613
535.741	112.904
539.116	175.452
542.491	266.879
545.866	375.85
549.24	475.055
552.615	499.051
555.99	423.287
559.365	329.039
562.74	228.344
566.115	155.007
569.489	93.7573
572.864	61.5359
576.239	35.5188
579.614	12.8965
582.989	2.71973
586.363	1.75244
589.738	0.47876
593.113	5.35588
596.488	3.14282
599.863	13.1062
603.237	30.2446
606.612	60.0942
609.987	102.262
613.362	152.899
616.737	226.182
620.112	333.517
623.486	455.302
626.861	523.689
630.236	492.238
633.611	405.196
636.986	354.43
640.361	364.884
643.735	409.424
647.11	426.438
650.485	368.339
653.86	301.152
657.235	278.502
660.609	313.223
663.984	371.759
667.359	367.931
670.734	295.339
674.109	202.535
677.484	129.882
680.858	96.1616
684.233	59.7251
687.608	39.0024
690.983	22.5207
694.357	11.8599
697.732	12.4192
701.107	11.958
704.482	4.36304
707.857	1.79321
711.232	0.515625
714.606	8.47461
717.981	2.70166
721.356	4.26636
724.731	5.69971
728.106	5.71411
731.481	2.87549
734.855	9.78149
738.23	25.5801
741.605	37.677
744.98	45.2126
748.355	44.7493
751.729	43.0444
755.104	21.3989
758.479	13.2234
761.854	24.5732
765.229	32.2915
768.604	38.6987
771.978	46.4177
775.353	60.189
778.728	73.6926
782.103	99.7917
785.478	148.732
788.852	167.468
792.227	144
795.602	94.9221
798.977	54.5669
802.352	36.595
805.726	25.0769
809.101	24.4905
812.476	11.6897
815.851	7.55811
819.226	12.0386
822.601	15.3935
825.975	5.17407
829.35	3.11792
832.725	5.31787
836.1	3.92896
839.475	9.73682
842.85	7.69971
846.224	21.6045
849.599	15.7205
852.974	20.6714
856.349	9.25757
859.724	15.4075
863.098	9.66431
866.473	5.22266
869.848	6.06885
873.223	11.4065
876.598	11.3208
879.972	3.88208
883.347	7.26636
886.722	6.95532
890.097	6.83057
893.472	14.3079
896.847	15.0784
900.221	20.5496
903.596	8.7063
906.971	7.49243
910.346	12.9668
913.721	5.32617
917.096	2.03882
920.47	0.981445
923.845	2.70312
927.22	0.132324
930.595	1.76196
933.97	3.42236
937.344	5.28686
940.719	2.77637
944.094	5.04419
947.469	3.58472
950.844	12.7581
954.218	22.2705
957.593	36.844
960.968	73.5557
964.343	144.586
967.718	241.06
971.092	251.261
974.467	155.45
977.842	82.8035
981.217	53.9563
984.592	41.8752
987.967	27.2666
991.341	12.689
994.716	8.25391
998.091	10.4106
1001.47	12.7849
1004.84	17.342
1008.22	25.407
1011.59	30.0564
1014.97	28.9717
1018.34	9.07202
1021.72	5.7146
1025.09	13.7473
1028.46	11.4932
1031.84	2.57544
1035.21	1.97803
1038.59	6.61963
1041.96	10.4451
1045.34	11.709
1048.71	8.39233
1052.09	30.8943
1055.46	33.2756
1058.84	34.3767
1062.21	32.1443
1065.59	23.4629
1068.96	21.4148
1072.34	2.32666
1075.71	1.83618
1079.09	6.104
1082.46	1.6499
1085.84	3.64868
1089.21	21.8323
1092.59	34.2778
1095.96	50.3264
1099.34	61.4055
1102.71	67.0742
1106.09	75.1187
1109.46	101.301
1112.84	147.272
1116.21	213.035
1119.58	319.903
1122.96	449.766
1126.33	578.237
1129.71	622.822
1133.08	602.678
1136.46	527.268
1139.83	430.355
1143.21	332.128
1146.58	269.341
1149.96	253.768
1153.33	282.093
1156.71	308.772
1160.08	267.788
1163.46	189.653
1166.83	117.385
1170.21	76.6733
1173.58	49.2231
1176.96	35.7263
1180.33	27.9487
1183.71	19.8782
1187.08	18.3057
1190.46	19.4448
1193.83	7.15942
1197.2	8.95068
1200.58	4.84668
1203.95	2.48096
1207.33	1.16528
1210.7	1.8457
1214.08	1.45389
1217.45	2.47607
1220.83	11.3044
1224.2	1.20703
1227.58	4.71729
1230.95	-0.0642073
1234.33	0.537109
1237.7	0.835693
1241.08	2.65234
1244.45	2.56787
1247.83	6.50293
1251.2	22.634
1254.58	20.3872
1257.95	22.2117
1261.33	19.6196
1264.7	15.2815
1268.08	6.18726
1271.45	2.36011
1274.83	6.71436
1278.2	8.05762
1281.58	7.12402
1284.95	7.24829
1288.33	1.63184
1291.7	8.17358
1295.08	5.4104
1298.45	0.700928
1301.83	0
