Measurement: Raman, 514 nm, unoriented, Raman Data Processed
Mineral: Yugawaralite
Rruff sample: R050407
Ideal chemistry: Ca(Si_6_Al_2_)O_16_4H_2_O
Locality: Malad quarry, Mumbai, Maharashtra, India
Source: G.R. Rossman
Description: Group of colorless flat tabular crystals
Measured chemistry: Ca_1.00_(Si_6.00_Al_2.00_)O_16_Â·4H_2_O
Raman shift (cm-1)	intensity
78.031	0
82.218	224.244
86.404	1230.09
90.587	3355.5
94.768	5673.66
98.947	5246.4
103.124	3613.91
107.3	4564.6
111.473	6348.99
115.644	8072.95
119.813	9828.14
123.981	9455.01
128.146	6306.66
132.309	3370.86
136.47	2610.26
140.63	3813.01
144.787	5726.78
148.942	8974.17
153.096	12835.8
157.247	16057.1
161.396	16705.1
165.544	14002.2
169.689	11616.6
173.833	12248.9
177.974	14452.1
182.114	17051
186.251	19971.7
190.387	19692
194.52	17456.4
198.652	14342.3
202.782	11710.4
206.909	9470.72
211.035	7574.78
215.159	6158.38
219.281	6406.13
223.4	7729.55
227.518	9198.48
231.634	7718.81
235.748	5243.48
239.86	3313.4
243.97	2299.06
248.079	1389.4
252.185	679.271
256.289	304.332
260.391	298.123
264.492	606.666
268.59	977.712
272.687	871.345
276.781	172.884
280.874	166.159
284.964	60.567
289.053	79.902
293.14	81.301
297.225	346.009
301.308	617.07
305.389	743.654
309.468	698.276
313.545	161.778
317.62	545.771
321.693	1064.89
325.765	663.601
329.834	272.916
333.902	222.857
337.967	112.308
342.031	477.205
346.093	1185.24
350.153	1631.58
354.21	1488.8
358.267	1566.41
362.321	2652.02
366.373	2986.49
370.423	2243.93
374.471	1239.37
378.518	697.509
382.563	533.359
386.605	556.828
390.646	1175.89
394.685	2475.54
398.722	4028.41
402.757	5172.66
406.79	6141.21
410.821	7157.89
414.851	8087.7
418.878	9278.72
422.904	11021.5
426.927	13995.4
430.949	15835.7
434.969	15914.1
438.987	15143.7
443.003	16318.7
447.018	19620.7
451.03	21977.9
455.041	19986.8
459.049	16199.9
463.056	16813.8
467.061	20156.1
471.064	22771.1
475.065	25102.8
479.064	23907.6
483.062	18510.9
487.057	12160.1
491.051	7746.24
495.043	5063.18
499.032	3617.73
503.02	2615.32
507.007	2185.9
510.991	1683.33
514.973	1302.63
518.954	1123.88
522.933	937.287
526.91	878.337
530.885	1021.93
534.858	1080.28
538.829	1611.88
542.799	2203.92
546.766	3347.43
550.732	4235.79
554.696	4404.83
558.658	3658.23
562.618	2365.35
566.576	2084.84
570.533	918.663
574.488	683.512
578.44	214.074
582.391	219.222
586.341	12.584
590.288	79.317
594.233	114.979
598.177	69.906
602.119	14.451
606.059	36.046
609.997	89.479
613.933	73.009
617.868	239.914
621.801	521.138
625.731	649.46
629.66	1260.23
633.588	1629.05
637.513	1630.99
641.437	2405.8
645.358	2964.48
649.278	2986.05
653.196	2226.95
657.113	2264.52
661.027	2722.1
664.94	2820.6
668.851	2532.03
672.76	1615.4
676.667	1071.94
680.572	665.484
684.476	597.686
688.378	323.287
692.278	390.365
696.176	732.145
700.072	519.436
703.967	636.068
707.86	656.279
711.751	452.951
715.64	294.93
719.527	361.582
723.413	371.236
727.297	346.531
731.179	743.83
735.059	732.416
738.937	1486.83
742.814	1708.11
746.689	1787.18
750.562	1403.03
754.433	680.266
758.303	620.355
762.17	982.42
766.036	1166.71
769.901	863.893
773.763	916.486
777.624	1033.09
781.482	1378.31
785.339	1918.32
789.195	2614.38
793.048	2295.91
796.9	1586.94
800.75	667.473
804.598	228.533
808.445	408.121
812.289	72.244
816.132	363.947
819.973	37.248
823.813	70.17
827.65	56.268
831.486	156.857
835.32	31.436
839.152	192.746
842.983	258.676
846.812	123.74
850.639	258.828
854.464	213.127
858.288	205.053
862.11	119.24
865.93	23.316
869.748	168.734
873.564	125.168
877.379	24.52
881.192	122.852
885.004	69.459
888.813	79.52
892.621	12.947
896.427	329.768
900.232	337.195
904.034	120.248
907.835	149.158
911.634	175.918
915.432	183.381
919.227	32.416
923.021	226.533
926.813	230.02
930.604	181.902
934.393	129.121
938.18	95.611
941.965	231.365
945.749	112.406
949.53	475.744
953.311	471.391
957.089	599.371
960.866	698.27
964.641	1440.95
968.414	2502
972.185	2339.44
975.955	1711.28
979.723	1318.31
983.49	869.061
987.254	1025.2
991.017	968.459
994.779	780.701
998.538	643.324
1002.3	867.695
1006.05	683.029
1009.81	669.564
1013.56	828.055
1017.31	719.629
1021.06	662.445
1024.81	1030.22
1028.55	1261.82
1032.3	1386.82
1036.04	1366.43
1039.78	1041.08
1043.52	848.646
1047.26	1033.86
1050.99	1506.52
1054.73	1401.88
1058.46	1683.92
1062.19	1164.62
1065.92	1103.96
1069.65	1343.39
1073.37	1326.01
1077.1	1090.25
1080.82	1511.11
1084.54	1156.59
1088.26	1580.66
1091.97	2088.32
1095.69	2739.58
1099.4	3255.45
1103.12	4038.95
1106.83	4545.07
1110.54	4074.84
1114.24	4030.27
1117.95	4827.36
1121.65	6256.1
1125.35	8257.51
1129.06	8947.25
1132.75	7061.76
1136.45	4911.33
1140.15	4145.64
1143.84	2970.64
1147.53	2748.59
1151.22	2272.39
1154.91	1896.44
1158.6	1224.82
1162.28	1009.93
1165.97	919.828
1169.65	987.625
1173.33	407.66
1177.01	1000.35
1180.69	576.457
1184.36	699.949
1188.04	585.199
1191.71	658.121
1195.38	319.578
1199.05	609.797
1202.71	288.984
1206.38	728.5
1210.04	197.988
1213.71	317.867
1217.37	464.488
1221.03	265.305
1224.68	216.004
1228.34	396.102
1231.99	404.152
1235.65	424.656
1239.3	539.152
1242.95	528.641
1246.59	287.125
1250.24	442.602
1253.88	418.426
1257.53	222.445
1261.17	276.809
1264.81	396.852
1268.45	338.703
1272.08	85.562
1275.72	84.266
1279.35	73.52
1282.98	161.781
1286.61	420.684
1290.24	230.16
1293.87	90.316
1297.49	243.262
1301.11	325.098
1304.73	729.953
1308.36	63.133
1311.97	560.668
1315.59	171.473
1319.2	179.707
1322.82	244.219
1326.43	51.184
1330.04	1.746
1333.65	386.266
1337.26	276.961
1340.86	147.738
1344.47	31.043
1348.07	152.73
1351.67	159.742
1355.27	417.051
1358.87	342.906
1362.46	432.719
1366.06	511.164
1369.65	372.297
1373.24	397.133
