Measurement: Raman, 780 nm, unoriented, Raman Data Processed
Mineral: Yugawaralite
Rruff sample: R060568
Ideal chemistry: Ca(Si_6_Al_2_)O_16_4H_2_O
Locality: Khandivali Quarry, near Bombay, India
Source: Michael Scott
Description: Colorless fragment
Measured chemistry: Ca_1.00_(Si_6.00_Al_2.00_)O_16_Â·4H_2_O; H_2_O estimated by difference
Raman shift (cm-1)	intensity
93.4884	0
96.8632	147.673
100.238	109.364
103.613	34.8852
106.988	3.63745
110.362	3.83569
113.737	33.7417
117.112	146.868
120.487	188.181
123.862	209.292
127.237	169.19
130.611	70.6462
133.986	5.16303
137.361	19.3005
140.736	2.90301
144.111	40.9277
147.485	95.72
150.86	160.207
154.235	239.809
157.61	313.75
160.985	334.726
164.359	307.172
167.734	245.718
171.109	214.646
174.484	231.119
177.859	281.305
181.234	341.795
184.608	406.424
187.983	447.435
191.358	433.253
194.733	363.448
198.108	281.928
201.482	220.146
204.857	167.281
208.232	116.192
211.607	72.9549
214.982	46.8518
218.357	41.1575
221.731	52.1902
225.106	76.8888
228.481	101.005
231.856	103.384
235.231	89.8771
238.605	84.8875
241.98	79.3803
245.355	68.9389
248.73	42.6292
252.105	13.9364
255.48	3.02872
258.854	2.45145
262.229	7.78592
265.604	21.585
268.979	27.5971
272.354	28.4884
275.728	25.5375
279.103	20.7651
282.478	6.64972
285.853	5.5434
289.228	9.04916
292.602	3.0126
295.977	7.30972
299.352	17.9591
302.727	18.9804
306.102	21.7087
309.476	27.8753
312.851	49.9329
316.226	80.4192
319.601	105.87
322.976	97.9963
326.351	64.9762
329.725	36.8001
333.1	18.5356
336.475	19.578
339.85	26.3213
343.225	54.0314
346.599	84.8103
349.974	115.76
353.349	120.222
356.724	83.2381
360.099	66.8418
363.474	76.3402
366.848	84.4479
370.223	66.7124
373.598	37.5518
376.973	8.81833
380.348	9.83749
383.722	14.6001
387.097	3.9099
390.472	29.6314
393.847	68.5693
397.222	114.158
400.596	163.915
403.971	196.643
407.346	199.821
410.721	175.047
414.096	146.012
417.471	138.051
420.845	146.041
424.22	169.566
427.595	201.274
430.97	229.239
434.345	247.174
437.719	280.81
441.094	329.738
444.469	375.601
447.844	388.159
451.219	367.872
454.594	324.921
457.968	262.861
461.343	227.972
464.718	234.902
468.093	260.128
471.468	272.279
474.842	287.504
478.217	304.636
481.592	306.631
484.967	262.183
488.342	182.767
491.716	110.999
495.091	63.5007
498.466	36.1896
501.841	17.3754
505.216	6.38013
508.591	0.402924
511.965	3.76942
515.34	3.96069
518.715	4.66254
522.09	3.5661
525.465	0.114105
528.84	3.05675
532.214	10.6883
535.589	18.9093
538.964	30.3467
542.339	45.0934
545.713	63.2622
549.088	77.6874
552.463	86.256
555.838	76.5739
559.213	59.2659
562.588	41.0303
565.962	27.6136
569.337	19.4096
572.712	11.7695
576.087	6.97755
579.462	2.86512
582.837	0.180534
586.211	0.29351
589.586	1.09804
592.961	0.861893
596.336	2.00664
599.711	3.31697
603.085	6.32902
606.46	10.3849
609.835	15.7474
613.21	24.4395
616.585	36.9231
619.96	51.7449
623.334	70.1111
626.709	84.0781
630.084	81.5177
633.459	67.9595
636.833	61.5032
640.208	64.112
643.583	72.4027
646.958	75.6927
650.333	67.9477
653.708	49.0949
657.082	43.5289
660.457	47.3343
663.832	53.2009
667.207	53.475
670.582	43.1228
673.957	34.2239
677.331	21.7661
680.706	16.6228
684.081	13.249
687.456	8.90073
690.831	5.02084
694.205	4.52662
697.58	4.89029
700.955	4.96607
704.33	2.81271
707.705	1.47414
711.079	0.164734
714.454	1.27648
717.829	0.870422
721.204	1.10847
724.579	0.163139
727.953	0.68425
731.328	2.16997
734.703	4.89335
738.078	7.45244
741.453	11.3903
744.828	13.0448
748.202	11.3573
751.577	8.67073
754.952	7.1898
758.327	6.88287
761.702	9.8855
765.077	13.2839
768.451	14.0483
771.826	14.3467
775.201	17.3252
778.576	22.4202
781.951	28.5721
785.325	38.0628
788.7	49.7599
792.075	47.0529
795.45	34.0162
798.825	19.0562
802.199	10.5366
805.574	5.91241
808.949	4.11679
812.324	1.79284
815.699	2.06456
819.073	0.660767
822.448	0.040565
825.823	0.729851
829.198	0.100235
832.573	0.618843
835.948	0.533112
839.322	1.16421
842.697	1.7434
846.072	2.20475
849.447	1.79003
852.822	1.68282
856.197	2.41659
859.571	2.81431
862.946	2.52373
866.321	1.50935
869.696	2.57027
873.071	1.65823
876.445	2.32304
879.82	1.88208
883.195	1.44276
886.57	1.32399
889.945	1.43887
893.319	1.59092
896.694	1.38823
900.069	1.48309
903.444	1.31224
906.819	0.277321
910.193	0.994781
913.568	0.800621
916.943	0.647812
920.318	0.328026
923.693	0.713453
927.068	0.076263
930.442	0.783195
933.817	0.866806
937.192	0.977646
940.567	1.17278
943.942	0.83065
947.317	0.182686
950.691	0.839127
954.066	3.09439
957.441	4.59112
960.816	9.90283
964.191	16.8569
967.565	28.7551
970.94	31.3204
974.315	19.5962
977.69	10.7668
981.065	6.09313
984.439	4.43272
987.814	2.35566
991.189	0.266838
994.564	0.536682
997.939	0.012703
1001.31	1.60808
1004.69	3.45532
1008.06	6.56909
1011.44	5.24082
1014.81	4.34016
1018.19	2.15704
1021.56	2.20997
1024.94	3.21066
1028.31	1.30822
1031.69	0.625427
1035.06	0.311974
1038.44	0.991531
1041.81	3.633
1045.19	4.20579
1048.56	4.44346
1051.94	3.9474
1055.31	4.50761
1058.68	5.42582
1062.06	5.78348
1065.43	4.59247
1068.81	3.55093
1072.18	1.64264
1075.56	0.482124
1078.93	0.118401
1082.31	0.18045
1085.68	0.966606
1089.06	3.5005
1092.43	7.3538
1095.81	10.2218
1099.18	11.8693
1102.56	10.7621
1105.93	10.511
1109.31	13.3701
1112.68	18.1841
1116.06	26.382
1119.43	39.6614
1122.81	56.9979
1126.18	74.2051
1129.56	85.7571
1132.93	86.3357
1136.31	78.9092
1139.68	65.6647
1143.06	52.1163
1146.43	40.3975
1149.81	37.4507
1153.18	39.219
1156.56	42.1831
1159.93	35.9035
1163.31	25.3607
1166.68	15.5057
1170.05	9.69917
1173.43	5.5108
1176.8	3.24588
1180.18	2.38341
1183.55	1.58933
1186.93	0.538795
1190.3	0.33852
1193.68	0.003872
1197.05	0.436218
1200.43	0.128227
1203.8	0.392506
1207.18	0.147793
1210.55	0.068432
1213.93	0.43586
1217.3	0.31419
1220.68	0.546448
1224.05	0.144653
1227.43	0.636047
1230.8	0.071991
1234.18	1.70548
1237.55	0.731705
1240.92	1.43071
1244.3	2.24373
1247.67	2.82304
1251.05	1.59396
1254.42	2.10372
1257.8	1.54612
1261.17	1.71229
1264.55	1.79828
1267.92	1.28885
1271.3	0.922073
1274.67	0.283783
1278.05	0.216979
1281.42	0.030689
1284.8	0
