Measurement: Raman, 780 nm, unoriented, Raman Data Processed
Mineral: Yugawaralite
Rruff sample: R050407
Ideal chemistry: Ca(Si_6_Al_2_)O_16_4H_2_O
Locality: Malad quarry, Mumbai, Maharashtra, India
Source: G.R. Rossman
Description: Group of colorless flat tabular crystals
Measured chemistry: Ca_1.00_(Si_6.00_Al_2.00_)O_16_Â·4H_2_O
Raman shift (cm-1)	intensity
133.986	0
136.878	1.21494
139.771	8.64414
142.664	32.0373
145.556	62.6021
148.449	99.9459
151.342	134.834
154.234	169.289
157.127	188.222
160.02	189.367
162.912	166.031
165.805	134.648
168.698	116.607
171.591	117.624
174.483	138.124
177.376	164.838
180.269	193.502
183.161	218.242
186.054	242.023
188.947	243.514
191.839	223.475
194.732	194.805
197.625	165.434
200.518	135.42
203.41	108.116
206.303	80.0204
209.196	51.3815
212.088	30.0203
214.981	17.09
217.874	16.7428
220.766	26.075
223.659	39.6928
226.552	51.18
229.445	53.5337
232.337	49.9551
235.23	42.1919
238.123	39.4452
241.015	38.5657
243.908	30.4558
246.801	19.0898
249.694	1.97244
252.586	9.58591
255.479	9.72812
258.372	7.07126
261.264	2.66708
264.157	8.95419
267.05	13.5261
269.942	17.8088
272.835	20.2125
275.728	19.7746
278.62	17.4959
281.513	15.4228
284.406	7.70988
287.299	8.1552
290.191	11.2081
293.084	19.5051
295.977	22.8481
298.869	28.299
301.762	26.5455
304.655	23.8117
307.548	24.1357
310.44	31.4497
313.333	42.7651
316.226	51.3272
319.118	57.4647
322.011	51.0156
324.904	31.3643
327.796	14.0919
330.689	5.15044
333.582	0.23027
336.474	3.3338
339.367	15.2575
342.26	31.5254
345.152	52.6255
348.045	69.9285
350.938	79.6434
353.831	68.5548
356.723	43.562
359.616	29.208
362.509	26.1372
365.401	23.8404
368.294	14.4438
371.187	4.06554
374.079	1.87566
376.972	7.93324
379.865	7.43666
382.758	3.71878
385.65	9.52173
388.543	26.0644
391.436	46.7067
394.328	74.674
397.221	96.0888
400.114	119.397
403.007	133.58
405.899	133.139
408.792	127.992
411.685	115.406
414.577	110.681
417.47	113.363
420.363	128.855
423.255	145.875
426.148	171.265
429.041	193.918
431.933	211.567
434.826	231.821
437.719	257.076
440.612	282.437
443.504	297.795
446.397	292.06
449.29	258.965
452.182	221.721
455.075	189.911
457.968	173.47
460.861	172.244
463.753	191.417
466.646	211.922
469.539	229.039
472.431	252.649
475.324	267.027
478.217	270.929
481.109	251.344
484.002	206.912
486.895	150.238
489.788	99.74
492.68	62.517
495.573	38.4731
498.466	24.5026
501.358	13.0525
504.251	5.63542
507.144	2.05385
510.036	1.11808
512.929	2.9726
515.822	1.82542
518.715	4.31521
521.607	2.411
524.5	0.257271
527.393	1.95751
530.285	6.147
533.178	10.7776
536.071	18.754
538.963	23.7221
541.856	31.3683
544.749	39.9984
547.641	49.0088
550.534	52.7925
553.427	51.8648
556.32	43.985
559.212	32.8858
562.105	23.4322
564.998	17.0377
567.89	14.183
570.783	8.05841
573.676	6.58479
576.568	2.64593
579.461	0.324181
582.354	0.976402
585.247	0.857735
588.139	0.969109
591.032	0.03093
593.925	1.49985
596.817	2.99134
599.71	3.30831
602.603	4.62904
605.495	7.6453
608.388	10.3931
611.281	14.9916
614.174	20.7244
617.066	26.5091
619.959	34.3903
622.852	42.6105
625.744	43.9564
628.637	45.3863
631.53	43.2915
634.423	40.1076
637.315	42.1218
640.208	47.8745
643.101	50.5161
645.993	51.6075
648.886	46.0625
651.779	33.8307
654.671	26.981
657.564	25.0441
660.457	23.4489
663.35	21.7602
666.242	22.3613
669.135	18.5307
672.028	15.5134
674.92	12.6591
677.813	9.57634
680.706	11.1668
683.598	8.12781
686.491	7.68731
689.384	3.97417
692.277	4.44191
695.169	5.51866
698.062	3.71009
700.955	2.72395
703.847	0.898792
706.74	0.146194
709.633	1.07363
712.525	1.52464
715.418	1.36998
718.311	0.088871
721.203	0.070412
724.096	0.508862
726.989	1.68562
729.882	4.3631
732.774	4.29665
735.667	6.21347
738.56	10.2805
741.452	12.6209
744.345	15.0459
747.238	14.2223
750.13	12.3968
753.023	11.2907
755.916	9.8866
758.809	11.8634
761.701	15.0968
764.594	18.7647
767.487	19.5192
770.379	17.0257
773.272	18.0619
776.165	20.3696
779.058	25.5999
781.95	31.2849
784.843	38.7865
787.736	40.3027
790.628	39.4945
793.521	28.8247
796.414	19.9106
799.306	11.2527
802.199	7.63573
805.092	5.35159
807.985	3.88423
810.877	1.66612
813.77	3.59071
816.663	0.226753
819.555	0.695862
822.448	0.767082
825.341	0.209751
828.233	1.67318
831.126	1.4128
834.019	2.0171
836.912	0.353535
839.804	1.80878
842.697	1.69485
845.59	2.46927
848.482	0.909504
851.375	0.149265
854.268	1.17951
857.16	1.97704
860.053	2.34959
862.946	1.48917
865.838	3.92741
868.731	2.61513
871.624	3.05202
874.517	2.92101
877.409	3.1231
880.302	2.63329
883.195	3.04315
886.087	4.38931
888.98	2.73373
891.873	1.37234
894.765	3.41847
897.658	1.86896
900.551	2.8648
903.444	2.2315
906.336	0.444935
909.229	0.847897
912.122	0.258049
915.014	0.632301
917.907	1.72528
920.8	1.61599
923.692	0.228767
926.585	1.65467
929.478	1.00523
932.37	0.243191
935.263	1.59318
938.156	0.698719
941.049	0.60289
943.941	1.58452
946.834	1.82069
949.727	2.04409
952.619	1.56425
955.512	2.15347
958.405	3.66571
961.298	4.67516
964.19	6.00636
967.083	7.70517
969.976	8.19785
972.868	5.63248
975.761	3.95906
978.654	2.18761
981.546	1.99924
984.439	1.61028
987.332	1.28935
990.225	1.24528
993.117	0.171864
996.01	0.162712
998.903	0.263733
1001.79	3.08512
1004.69	4.56269
1007.58	5.02493
1010.47	4.8455
1013.37	4.02823
1016.26	1.34183
1019.15	1.77203
1022.04	0.686321
1024.94	1.55211
1027.83	2.21938
1030.72	1.78086
1033.62	0.95224
1036.51	2.99923
1039.4	5.5344
1042.29	5.87566
1045.19	6.54479
1048.08	4.22044
1050.97	3.05254
1053.86	1.58924
1056.76	1.80659
1059.65	2.1977
1062.54	2.48666
1065.43	4.18426
1068.33	2.99036
1071.22	1.09143
1074.11	1.65282
1077.01	0.229927
1079.9	1.5938
1082.79	1.09457
1085.68	1.4441
1088.58	4.99468
1091.47	6.10004
1094.36	9.49712
1097.25	10.4132
1100.15	9.83815
1103.04	7.67208
1105.93	7.81848
1108.83	8.4987
1111.72	10.6049
1114.61	15.4258
1117.5	21.6413
1120.4	28.9654
1123.29	37.3224
1126.18	46.7585
1129.07	53.7822
1131.97	58.0489
1134.86	59.2436
1137.75	53.4911
1140.64	46.2334
1143.54	36.5453
1146.43	31.1012
1149.32	28.5189
1152.22	26.9536
1155.11	25.055
1158	23.5389
1160.89	18.89
1163.79	11.2937
1166.68	8.95006
1169.57	4.71931
1172.46	4.03094
1175.36	1.8013
1178.25	1.04826
1181.14	1.2906
1184.04	0.320301
1186.93	0.134769
1189.82	0.086502
1192.71	0.425825
1195.61	0.304176
1198.5	2.32973
1201.39	1.51771
1204.28	0.030273
1207.18	0.20104
1210.07	0.672276
1212.96	1.35305
1215.86	0.441095
1218.75	1.3211
1221.64	1.43389
1224.53	1.83194
1227.43	1.97817
1230.32	2.32166
1233.21	1.6907
1236.1	1.02638
1239	1.2247
1241.89	1.17235
1244.78	1.96055
1247.67	2.41944
1250.57	1.89856
1253.46	2.26733
1256.35	0.81234
1259.25	1.13895
1262.14	0.845289
1265.03	2.32015
1267.92	0.730246
1270.82	0.124624
1273.71	1.48883
1276.6	1.74405
1279.49	0.205076
1282.39	1.58094
1285.28	0.47357
