Measurement: Raman, 532 nm, unoriented, Raman Data Processed
Mineral: Yvonite
Rruff sample: R100010
Ideal chemistry: Cu^3+^(As^5+^O_3_OH)2H_2_O
Locality: Salsigne Gold mine, Aude, France
Source: William Pinch
Description: Aggregates of pale blue grains
Raman shift (cm-1)	intensity
147.94	0
150.832	0.44075
153.725	8.69644
156.618	10.8557
159.51	20.6548
162.403	27.4593
165.296	38.5645
168.189	44.9479
171.081	49.7483
173.974	44.1571
176.867	39.1264
179.759	30.2488
182.652	23.3566
185.545	16.0514
188.437	14.5281
191.33	13.49
194.223	12.914
197.115	14.8933
200.008	14.6201
202.901	14.7619
205.794	13.2957
208.686	13.7459
211.579	12.7494
214.472	16.3448
217.364	19.6163
220.257	22.8807
223.15	28.3384
226.042	28.4295
228.935	17.6911
231.828	8.34701
234.721	1.80655
237.613	1.3854
240.506	1.348
243.399	1.17093
246.291	2.33264
249.184	0.018196
252.077	0.665985
254.97	1.39358
257.862	1.28167
260.755	1.69274
263.648	1.90246
266.54	3.49508
269.433	6.02187
272.326	6.74744
275.218	10.4733
278.111	9.50054
281.004	9.21726
283.897	7.35802
286.789	7.44874
289.682	7.9381
292.575	7.43208
295.467	6.14346
298.36	6.24793
301.253	9.20396
304.145	6.32167
307.038	5.93276
309.931	7.7487
312.824	5.94102
315.716	6.43304
318.609	8.10628
321.502	9.28626
324.394	9.85619
327.287	9.97636
330.18	10.9495
333.072	15.869
335.965	18.2417
338.858	18.1199
341.75	18.0919
344.643	18.9633
347.536	15.2417
350.429	14.4297
353.321	10.7382
356.214	8.26114
359.107	7.91516
361.999	9.00489
364.892	8.18268
367.785	5.60078
370.678	4.73215
373.57	0.068306
376.463	3.16023
379.356	3.37111
382.248	4.57682
385.141	6.34692
388.034	4.71394
390.926	3.8111
393.819	3.61027
396.712	2.2359
399.604	1.87361
402.497	2.27615
405.39	1.34838
408.283	2.20281
411.175	1.63238
414.068	0.239494
416.961	0.355789
419.853	0.434273
422.746	1.02006
425.639	0.443794
428.531	0.568222
431.424	0.817177
434.317	0.585587
437.21	1.85844
440.102	2.82931
442.995	3.81271
445.888	1.32152
448.78	2.13721
451.673	4.34939
454.566	2.00096
457.459	0.28997
460.351	0.912033
463.244	1.93877
466.137	1.73789
469.029	2.27097
471.922	3.02435
474.815	4.36898
477.707	6.28944
480.6	7.8278
483.493	8.58947
486.385	9.88727
489.278	8.99701
492.171	9.20909
495.064	9.40054
497.956	11.0645
500.849	11.5265
503.742	11.7533
506.634	12.3478
509.527	13.0765
512.42	13.145
515.313	14.5713
518.205	16.0306
521.098	18.9373
523.991	23.6568
526.883	29.4565
529.776	39.3396
532.669	49.7669
535.562	61.5064
538.454	72.9885
541.347	90.3657
544.24	94.4659
547.132	98.1898
550.025	90.674
552.918	75.7847
555.81	61.3828
558.703	46.9766
561.596	35.5227
564.489	26.936
567.381	18.9872
570.274	13.8314
573.167	9.48593
576.059	5.80437
578.952	4.86826
581.845	3.34228
584.737	3.69043
587.63	1.36382
590.523	3.28128
593.415	1.32923
596.308	0.401581
599.201	0.490089
602.093	1.32104
604.986	0.619335
607.879	0.214973
610.772	0.365337
613.664	1.5978
616.557	0.373581
619.45	2.04313
622.342	0.750031
625.235	1.96257
628.128	3.23453
631.02	1.73804
633.913	1.5961
636.806	3.86984
639.699	1.74724
642.591	2.12838
645.484	2.42454
648.377	3.47469
651.269	3.03269
654.162	3.23894
657.055	3.08794
659.947	3.27583
662.84	3.60189
665.733	3.05201
668.626	3.10372
671.518	2.48585
674.411	1.97834
677.304	1.91863
680.196	1.94012
683.089	2.46834
685.982	1.27305
688.875	2.16371
691.767	1.82561
694.66	1.36947
697.553	1.84539
700.445	4.66851
703.338	6.24472
706.231	9.06378
709.123	12.5904
712.016	15.9128
714.909	20.628
717.802	28.2818
720.694	33.6357
723.587	36.599
726.48	37.2175
729.372	34.2999
732.265	30.6867
735.158	22.9355
738.05	14.6466
740.943	9.09457
743.836	5.93262
746.729	3.08181
749.621	1.57282
752.514	0.327759
755.407	3.26961
758.299	1.42419
761.192	2.51823
764.085	0.251335
766.977	0.674278
769.87	2.50105
772.763	5.79434
775.655	6.14563
778.548	7.46915
781.441	8.64419
784.334	9.13271
787.226	7.91125
790.119	8.61926
793.012	9.54424
795.904	9.07854
798.797	12.1039
801.69	10.2569
804.582	7.60426
807.475	5.52367
810.368	3.28495
813.261	1.49487
816.153	0.494995
819.046	0.848976
821.939	2.58511
824.831	9.59683
827.724	18.1717
830.617	28.8595
833.51	41.0247
836.402	59.7921
839.295	76.9642
842.188	93.8021
845.08	119.597
847.973	145.502
850.866	177.183
853.758	203.476
856.651	219.935
859.544	215.548
862.437	196.608
865.329	161.569
868.222	123.055
871.115	93.9026
874.007	73.611
876.9	62.1931
879.793	57.0639
882.685	56.6983
885.578	59.9273
888.471	67.4693
891.364	72.575
894.256	75.6398
897.149	72.3357
900.042	65.9969
902.934	57.8441
905.827	47.9897
908.72	38.1448
911.612	32.4229
914.505	24.1614
917.398	21.3795
920.29	16.8028
923.183	15.0643
926.076	11.9387
928.969	8.47398
931.861	8.0235
934.754	2.80086
937.647	3.22714
940.539	0.908417
943.432	1.06033
946.325	1.63329
949.217	0.404221
952.11	1.59171
955.003	0.730862
957.896	0.894962
960.788	0.593521
963.681	0.519356
966.574	1.38867
969.466	0.551205
972.359	1.66272
975.252	1.9908
978.144	2.07958
981.037	3.55629
983.93	5.46768
986.823	4.34392
989.715	4.80157
992.608	6.99506
995.501	4.96102
998.393	5.56149
1001.29	5.80738
1004.18	5.98587
1007.07	5.93943
1009.96	5.6487
1012.86	4.91183
1015.75	4.42372
1018.64	3.97412
1021.53	2.50539
1024.43	3.01651
1027.32	3.40504
1030.21	4.891
1033.11	2.73417
1036	3.22738
1038.89	3.05213
1041.78	3.71737
1044.68	3.89274
1047.57	3.46952
1050.46	2.97631
1053.36	3.38742
1056.25	2.24494
1059.14	2.80553
1062.03	2.25831
1064.93	3.84686
1067.82	1.27277
1070.71	2.82525
1073.6	2.50246
1076.5	2.46862
1079.39	1.40941
1082.28	1.26642
1085.17	1.06645
1088.07	1.53101
1090.96	0.545494
1093.85	1.35213
1096.74	1.03517
1099.64	0.786541
1102.53	1.49807
1105.42	0.362438
1108.32	2.02884
1111.21	1.81008
1114.1	1.4219
1116.99	0.966698
1119.89	1.37611
1122.78	1.81499
1125.67	0.023125
1128.57	1.18584
1131.46	0.744678
1134.35	0.412979
1137.24	0.241436
1140.14	0.565456
1143.03	0.214336
1145.92	1.39991
1148.81	2.92366
1151.71	0.759228
1154.6	0.562901
1157.49	2.054
1160.38	0.758583
1163.28	1.12922
1166.17	0.189972
1169.06	0.713772
1171.95	1.15996
1174.85	0.252247
1177.74	0.932301
1180.63	0.930386
1183.53	0.831089
1186.42	1.47996
1189.31	0.23917
1192.2	1.93821
1195.1	2.05421
1197.99	1.20756
1200.88	2.12812
1203.78	1.4543
1206.67	0.230736
1209.56	0.967484
1212.45	1.1784
1215.35	1.12949
1218.24	1.29617
1221.13	1.26868
1224.02	0.972923
1226.92	2.01284
1229.81	1.44187
1232.7	2.22031
1235.6	0.874306
1238.49	1.8818
1241.38	1.53209
1244.27	1.81366
1247.17	0.766304
1250.06	1.28036
1252.95	2.45298
1255.84	1.63786
1258.74	1.82814
1261.63	0.18095
1264.52	1.40804
1267.41	0.751263
1270.31	1.65729
1273.2	1.0974
1276.09	2.45965
1278.98	1.79758
1281.88	1.07953
1284.77	2.45279
1287.66	0.795036
1290.56	2.74875
1293.45	1.43023
1296.34	2.28804
1299.23	0.623844
1302.13	0
