Measurement: Raman, 780 nm, unoriented, Raman Data Processed
Mineral: Zabuyelite
Rruff sample: R100211
Ideal chemistry: Li_2_CO_3_
Locality: Synthetic, purchased from Sigma-Aldrich
Source: Michael Scott
Description: White powder
Raman shift (cm-1)	intensity
138.335	0
141.228	8.48656
144.12	46.815
147.013	106.065
149.906	186.531
152.798	348.298
155.691	633.191
158.584	256.41
161.477	47.5395
164.369	0.328247
167.262	5.25745
170.155	11.968
173.047	59.2595
175.94	84.1911
178.833	101.977
181.726	137.929
184.618	178.386
187.511	258.606
190.404	406.956
193.296	500.052
196.189	186.215
199.082	55.1669
201.974	23.7331
204.867	15.0906
207.76	10.3112
210.652	13.9706
213.545	21.4416
216.438	15.5708
219.331	20.3156
222.223	7.81222
225.116	1.88333
228.009	2.26638
230.901	2.76969
233.794	3.82615
236.687	3.29006
239.579	0.095592
242.472	1.97362
245.365	2.41435
248.257	10.8601
251.15	8.54017
254.043	14.4518
256.936	26.1524
259.828	33.7798
262.721	40.0894
265.614	49.4138
268.506	63.0765
271.399	73.7972
274.292	60.4789
277.185	45.7748
280.077	27.4164
282.97	19.1428
285.863	20.2084
288.755	10.3893
291.648	9.76439
294.541	10.0785
297.433	7.94856
300.326	6.19888
303.219	6.71643
306.111	4.72629
309.004	0.193106
311.897	3.28939
314.79	0.759125
317.682	6.34733
320.575	3.17597
323.468	1.54625
326.36	1.43411
329.253	1.04589
332.146	1.12209
335.038	2.20588
337.931	0.36017
340.824	2.54673
343.717	4.81045
346.609	1.86456
349.502	2.18752
352.395	7.1583
355.287	6.61132
358.18	10.8341
361.073	5.90258
363.965	9.69521
366.858	10.7753
369.751	20.6533
372.644	15.1396
375.536	21.3481
378.429	18.6026
381.322	9.64454
384.214	5.51587
387.107	9.59215
390	2.90442
392.892	2.84364
395.785	1.03305
398.678	0.416853
401.57	6.10052
404.463	6.59022
407.356	4.66957
410.249	7.73279
413.141	6.92081
416.034	11.8357
418.927	12.8573
421.819	14.3006
424.712	14.3114
427.605	12.638
430.498	11.8874
433.39	8.16172
436.283	9.82667
439.176	6.05073
442.068	10.8053
444.961	9.39495
447.854	6.38124
450.746	3.5013
453.639	3.96217
456.532	3.64937
459.425	1.31054
462.317	5.08951
465.21	0.696718
468.103	3.68448
470.995	4.20206
473.888	4.12347
476.781	4.77843
479.673	3.06002
482.566	13.7382
485.459	2.47453
488.351	7.93997
491.244	1.95443
494.137	1.41572
497.029	4.30593
499.922	5.07459
502.815	6.98663
505.708	9.49749
508.6	6.41662
511.493	10.7059
514.386	5.6807
517.278	6.2675
520.171	8.15926
523.064	7.32548
525.957	3.54457
528.849	3.86001
531.742	4.1509
534.635	2.23318
537.527	0.169061
540.42	5.20941
543.313	8.49682
546.205	6.72134
549.098	2.46839
551.991	4.58465
554.884	7.24869
557.776	6.62289
560.669	6.90302
563.562	6.20968
566.454	7.29148
569.347	0.271472
572.24	7.42377
575.132	3.21059
578.025	7.63428
580.918	9.96968
583.811	0.79111
586.703	1.63934
589.596	6.74938
592.489	4.06878
595.381	6.33292
598.274	3.35729
601.167	5.97027
604.059	6.38595
606.952	0.710702
609.845	10.7573
612.737	4.12096
615.63	3.4088
618.523	5.65321
621.416	8.32033
624.308	7.46356
627.201	7.41286
630.094	4.44731
632.986	5.50422
635.879	5.07781
638.772	4.5585
641.664	2.05803
644.557	2.93129
647.45	9.58454
650.342	9.32495
653.235	1.33698
656.128	5.68543
659.021	3.36319
661.913	5.77875
664.806	6.70148
667.699	0.999245
670.591	0.120906
673.484	8.98686
676.377	4.24468
679.269	10.2521
682.162	2.53861
685.055	4.95784
687.948	8.67184
690.84	7.02141
693.733	12.2204
696.626	9.32532
699.518	10.0579
702.411	16.7645
705.304	20.2561
708.197	23.6264
711.089	25.1588
713.982	13.3355
716.875	11.9355
719.767	10.4885
722.66	5.47621
725.553	10.7719
728.445	13.3994
731.338	16.9813
734.231	14.3086
737.124	22.5683
740.016	22.0522
742.909	32.1176
745.802	29.5026
748.694	28.766
751.587	23.508
754.48	12.6802
757.372	11.0349
760.265	9.21427
763.158	5.7973
766.051	2.98103
768.943	9.92257
771.836	2.6681
774.729	7.50958
777.621	1.42226
780.514	0.726088
783.407	7.39247
786.299	2.02818
789.192	4.01203
792.085	0.525091
794.977	5.59122
797.87	1.39381
800.763	6.78469
803.655	3.60636
806.548	9.95119
809.441	4.72699
812.334	3.43279
815.226	5.4798
818.119	11.1983
821.012	8.17079
823.904	6.85039
826.797	3.02875
829.69	5.44084
832.582	7.80168
835.475	6.17937
838.368	11.4604
841.261	1.59494
844.153	3.21279
847.046	8.80481
849.939	2.01148
852.831	1.46068
855.724	6.1662
858.617	8.44796
861.51	4.58297
864.402	6.99283
867.295	3.96469
870.188	7.61656
873.08	7.30562
875.973	8.53269
878.866	3.50086
881.758	4.33865
884.651	3.50171
887.544	6.31739
890.437	2.43975
893.329	3.94116
896.222	3.08372
899.115	1.15128
902.007	8.6787
904.9	1.15827
907.793	4.01199
910.685	7.88558
913.578	1.06933
916.471	5.26564
919.364	1.74981
922.256	9.91337
925.149	2.53834
928.042	1.27997
930.934	5.17382
933.827	3.28891
936.72	1.90244
939.612	0.709566
942.505	4.20028
945.398	1.14006
948.29	0.038278
951.183	3.59226
954.076	5.65218
956.968	3.9716
959.861	4.6145
962.754	7.04855
965.647	1.86919
968.539	8.65022
971.432	4.95719
974.325	3.44418
977.217	4.23438
980.11	6.43975
983.003	3.93336
985.895	0.535421
988.788	4.39302
991.681	4.64118
994.574	0.850117
997.466	4.06746
1000.36	6.92642
1003.25	6.35106
1006.14	3.61083
1009.04	1.62449
1011.93	1.04949
1014.82	0.231299
1017.72	5.69154
1020.61	5.91112
1023.5	6.15021
1026.39	0.361002
1029.29	7.19441
1032.18	1.66183
1035.07	1.62557
1037.96	1.50795
1040.86	3.56714
1043.75	5.50896
1046.64	9.48741
1049.54	2.56816
1052.43	5.49773
1055.32	1.16321
1058.21	15.9911
1061.11	17.8765
1064	11.4002
1066.89	24.66
1069.78	36.3362
1072.68	54.8114
1075.57	105.604
1078.46	208.293
1081.35	288.274
1084.25	414.744
1087.14	655.725
1090.03	821.519
1092.92	395.582
1095.82	148.961
1098.71	71.286
1101.6	44.5498
1104.5	31.0049
1107.39	17.408
1110.28	11.9868
1113.17	13.1504
1116.07	7.41859
1118.96	6.73493
1121.85	1.21034
1124.74	4.1254
1127.64	3.50557
1130.53	5.12771
1133.42	3.70928
1136.32	2.69429
1139.21	1.46563
1142.1	3.78588
1144.99	2.51762
1147.89	6.22944
1150.78	7.04944
1153.67	4.62523
1156.57	7.50478
1159.46	0.938813
1162.35	4.21812
1165.24	8.5625
1168.13	5.09423
1171.03	6.27899
1173.92	7.52823
1176.81	1.07894
1179.71	5.73245
1182.6	6.90138
1185.49	5.87802
1188.38	6.80802
1191.28	9.42617
1194.17	1.22764
1197.06	2.00459
1199.95	0.38221
1202.85	4.10501
1205.74	4.73636
1208.63	3.89473
1211.53	5.80444
1214.42	8.29092
1217.31	4.26241
1220.2	4.5343
1223.1	5.87685
1225.99	5.13394
1228.88	0.499946
1231.78	0.572754
1234.67	4.87155
1237.56	7.89614
1240.45	2.50745
1243.35	5.42697
1246.24	3.87262
1249.13	1.04097
1252.02	3.48319
1254.92	3.62051
1257.81	8.28458
1260.7	9.47976
1263.59	3.7861
1266.49	8.56665
1269.38	6.70986
1272.27	5.1366
1275.16	3.62055
1278.06	3.6664
1280.95	9.34348
1283.84	0.056561
