Measurement: Raman, 532 nm, unoriented, Raman Data Processed
Mineral: Zabuyelite
Rruff sample: R100211
Ideal chemistry: Li_2_CO_3_
Locality: Synthetic, purchased from Sigma-Aldrich
Source: Michael Scott
Description: White powder
Raman shift (cm-1)	intensity
137.318	0
140.693	5.23676
144.068	8.28221
147.443	23.0495
150.818	39.809
154.192	93.2742
157.567	189.709
160.942	66.7641
164.317	10.1641
167.692	7.58629
171.067	10.5334
174.441	22.6609
177.816	66.2705
181.191	82.9829
184.566	100.723
187.941	161.444
191.315	297.996
194.69	389.525
198.065	115.021
201.44	34.2577
204.815	19.0638
208.19	8.02783
211.565	9.47452
214.939	7.64365
218.314	11.7106
221.689	5.42509
225.064	5.69822
228.439	5.24798
231.813	4.50776
235.188	0.698692
238.563	1.5837
241.938	2.00589
245.313	3.68154
248.688	4.06313
252.062	0.195744
255.437	3.48809
258.812	10.0523
262.187	20.4028
265.562	30.648
268.936	47.2234
272.311	60.1454
275.686	50.9496
279.061	30.2389
282.436	20.5787
285.81	15.1105
289.185	9.68558
292.56	11.4625
295.935	4.99112
299.31	5.61235
302.685	5.47079
306.059	7.02259
309.434	4.47367
312.809	1.89649
316.184	3.79124
319.559	3.94948
322.933	5.35622
326.308	1.71962
329.683	3.85177
333.058	1.0134
336.433	0.279558
339.808	2.55498
343.183	8.84646
346.557	1.84747
349.932	3.257
353.307	9.65554
356.682	8.11889
360.057	6.53433
363.431	7.01996
366.806	7.22961
370.181	18.4051
373.556	11.6923
376.931	16.6106
380.305	14.0224
383.68	9.08316
387.055	10.7203
390.43	3.7714
393.805	0.097015
397.18	0.240105
400.554	2.01464
403.929	8.72673
407.304	5.42868
410.679	4.53595
414.054	7.00167
417.428	7.06148
420.803	12.8855
424.178	16.84
427.553	12.4783
430.928	9.68753
434.303	8.93071
437.677	11.8973
441.052	8.74014
444.427	11.5542
447.802	6.89672
451.177	0.284688
454.551	1.87239
457.926	0.303526
461.301	1.46151
464.676	2.1247
468.051	3.52632
471.426	5.68436
474.8	3.63567
478.175	5.64417
481.55	6.75869
484.925	14.1283
488.3	7.89797
491.675	2.98261
495.049	1.70936
498.424	2.28776
501.799	5.0654
505.174	4.89275
508.549	8.80677
511.923	5.88864
515.298	7.65398
518.673	6.08049
522.048	6.99252
525.423	4.58115
528.798	5.67186
532.172	3.43082
535.547	0.850336
538.922	0.142399
542.297	5.11275
545.672	6.64507
549.047	4.93778
552.421	8.01127
555.796	7.93175
559.171	4.40526
562.546	6.95468
565.921	5.03554
569.295	3.12782
572.67	5.38912
576.045	3.22921
579.42	3.83674
582.795	10.3938
586.17	2.25772
589.544	4.58697
592.919	5.79223
596.294	7.31202
599.669	3.7163
603.044	4.93912
606.418	4.49259
609.793	1.63744
613.168	4.40198
616.543	3.95453
619.918	4.82546
623.293	3.7347
626.667	6.52986
630.042	4.35709
633.417	2.05678
636.792	8.24737
640.167	4.54631
643.542	2.59999
646.916	2.25134
650.291	6.23759
653.666	4.47289
657.041	1.71455
660.416	3.18669
663.79	4.04346
667.165	3.69242
670.54	0.491987
673.915	0.535551
677.29	3.44649
680.664	0.598383
684.039	1.92243
687.414	4.12881
690.789	5.40367
694.164	6.9853
697.539	12.2706
700.913	11.2589
704.288	16.1832
707.663	20.662
711.038	18.9675
714.413	20.0673
717.788	9.47491
721.162	9.48486
724.537	6.39725
727.912	7.39754
731.287	13.5145
734.662	15.2317
738.036	12.441
741.411	24.8139
744.786	27.8461
748.161	31.236
751.536	24.3161
754.91	16.5691
758.285	10.0185
761.66	6.79366
765.035	5.80699
768.41	2.04238
771.785	0.153873
775.159	0.573765
778.534	0.37002
781.909	1.212
785.284	0.19717
788.659	5.92759
792.034	2.34432
795.408	8.54697
798.783	1.01798
802.158	0.045177
805.533	6.45525
808.908	2.00311
812.283	9.34767
815.657	2.85626
819.032	2.43976
822.407	5.36847
825.782	5.7442
829.157	6.45186
832.531	3.40265
835.906	2.05959
839.281	4.81525
842.656	5.78636
846.031	2.32219
849.405	4.91509
852.78	4.75382
856.155	0.683329
859.53	2.90368
862.905	10.0239
866.28	3.57635
869.654	1.82725
873.029	2.37621
876.404	3.84085
879.779	6.83727
883.154	7.99241
886.529	1.31252
889.903	2.591
893.278	3.93696
896.653	3.1718
900.028	0.170116
903.403	1.53249
906.778	1.01406
910.152	6.66338
913.527	4.46052
916.902	1.424
920.277	2.5508
923.652	3.09605
927.026	0.040846
930.401	7.46216
933.776	3.64524
937.151	3.33462
940.526	4.05704
943.9	2.44287
947.275	3.18423
950.65	3.1431
954.025	3.07328
957.4	2.41764
960.775	1.33862
964.149	0.932899
967.524	2.64317
970.899	4.72391
974.274	2.20875
977.649	6.16516
981.024	3.04646
984.398	4.71237
987.773	3.52135
991.148	3.59277
994.523	5.79499
997.898	3.33553
1001.27	3.66892
1004.65	0.220951
1008.02	1.12511
1011.4	1.49733
1014.77	3.21475
1018.15	4.12095
1021.52	1.93289
1024.9	0.199142
1028.27	4.42865
1031.65	4.27842
1035.02	6.07343
1038.4	4.36763
1041.77	0.52478
1045.14	0.627712
1048.52	0.414188
1051.89	3.94238
1055.27	6.88147
1058.64	12.1235
1062.02	11.8603
1065.39	19.5342
1068.77	25.551
1072.14	40.7545
1075.52	62.6804
1078.89	129.622
1082.27	272.229
1085.64	494.507
1089.02	893.941
1092.39	820.937
1095.77	270.869
1099.14	108.18
1102.52	52.2743
1105.89	29.7891
1109.27	21.402
1112.64	14.8948
1116.02	11.1405
1119.39	5.99886
1122.77	6.28767
1126.14	8.4744
1129.52	4.69815
1132.89	3.80164
1136.27	4.06844
1139.64	0.88599
1143.02	5.94149
1146.39	2.41537
1149.77	1.68258
1153.14	0.413515
1156.51	1.26961
1159.89	0.636415
1163.26	6.34362
1166.64	4.79942
1170.01	5.85675
1173.39	0.752787
1176.76	2.38792
1180.14	6.70119
1183.51	0.572897
1186.89	3.64714
1190.26	3.50938
1193.64	6.67814
1197.01	3.54755
1200.39	5.26844
1203.76	7.12234
1207.14	7.80571
1210.51	3.88415
1213.89	2.31746
1217.26	2.1452
1220.64	2.39064
1224.01	1.93891
1227.38	3.8862
1230.76	3.71397
1234.13	2.86162
1237.51	5.35397
1240.88	5.59992
1244.26	2.29024
1247.63	1.60232
1251.01	1.73966
1254.38	6.98049
1257.76	2.49094
1261.13	0.093109
1264.51	0.489666
1267.88	2.91084
1271.26	3.53766
1274.63	4.85465
1278.01	7.04169
1281.38	1.59521
1284.76	4.1099
1288.13	0.227024
1291.51	3.03135
1294.88	4.82124
1298.26	3.89743
1301.63	2.11326
