Measurement: Raman, 532 nm, unoriented, Raman Data Processed
Mineral: Zakharovite
Rruff sample: R080015
Ideal chemistry: Na_4_Mn^2+^_5_Si_10_O_24_(OH)_6_6H_2_O
Locality: Kedykevrpahkh Mt., Lovozero Massif, Kola Peninsula, Russia
Source: Michael Scott
Description: Yellow, scaly and elongated to 1 cm associated with microcline, associated with pale pinkish elogated serandite, natrolite. Yellow scaly platy crystals are vuonnemite. Light Brown platy crystals are manaksite.
Raman shift (cm-1)	intensity
145.957	0
149.332	3.71387
152.707	11.9406
156.081	26.794
159.456	41.8077
162.831	65.1086
166.206	89.2338
169.581	96.0136
172.956	52.3739
176.33	15.3018
179.705	2.47777
183.08	2.64003
186.455	3.08955
189.83	5.54407
193.204	5.97874
196.579	4.56741
199.954	4.69545
203.329	2.77373
206.704	1.03984
210.078	0.545395
213.453	1.10977
216.828	2.36375
220.203	1.11678
223.578	2.12657
226.952	7.89325
230.327	16.3142
233.702	18.1306
237.077	10.6553
240.452	4.93459
243.827	5.02647
247.201	6.97762
250.576	16.0432
253.951	21.6279
257.326	21.9146
260.701	19.4225
264.075	21.2907
267.45	26.0202
270.825	34.0605
274.2	35.145
277.575	37.002
280.95	46.2777
284.324	59.9319
287.699	62.8335
291.074	44.1648
294.449	21.8338
297.824	6.79684
301.199	1.29791
304.573	1.15666
307.948	1.79681
311.323	1.25032
314.698	2.18629
318.073	7.69588
321.447	14.1398
324.822	20.0967
328.197	23.6018
331.572	19.7367
334.947	13.3917
338.322	10.9413
341.696	13.2772
345.071	19.4748
348.446	26.0017
351.821	28.5366
355.196	24.9071
358.57	25.8965
361.945	36.131
365.32	53.0229
368.695	73.4474
372.07	79.9444
375.445	59.4165
378.819	44.0963
382.194	44.8488
385.569	48.6666
388.944	36.5941
392.318	16.3835
395.693	3.21667
399.068	1.16986
402.443	0.603577
405.818	6.03181
409.193	14.8071
412.567	29.9012
415.942	47.7184
419.317	69.3959
422.692	81.5865
426.067	73.315
429.442	55.5865
432.816	56.2304
436.191	74.6986
439.566	114.554
442.941	147.592
446.316	90.4388
449.69	37.8289
453.065	17.8016
456.44	12.9237
459.815	10.6996
463.19	3.5132
466.565	0.285828
469.939	0.553955
473.314	0.965469
476.689	0.428543
480.064	2.28413
483.439	4.41788
486.813	11.2246
490.188	19.7223
493.563	25.7112
496.938	34.9904
500.313	48.7192
503.688	71.5281
507.062	73.7596
510.437	46.8712
513.812	33.9864
517.187	34.9484
520.562	35.9373
523.936	19.725
527.311	8.14368
530.686	3.97426
534.061	1.45637
537.436	0.542877
540.81	0.345337
544.185	1.01212
547.56	0.023102
550.935	0.426361
554.31	0.906006
557.684	1.47635
561.059	3.04527
564.434	6.76211
567.809	12.2902
571.184	19.1264
574.559	33.0753
577.933	60.681
581.308	118.685
584.683	211.398
588.058	330.179
591.433	522.752
594.808	803.342
598.182	928.892
601.557	536.09
604.932	228.963
608.307	112.355
611.682	62.9089
615.056	35.4708
618.431	23.0296
621.806	14.4359
625.181	9.01694
628.556	5.11151
631.931	2.82121
635.305	0.949646
638.68	0.414108
642.055	0.963379
645.43	0.717819
648.805	7.30489
652.179	3.32227
655.554	6.92259
658.929	13.3806
662.304	26.7973
665.679	48.9528
669.053	82.6112
672.428	131.552
675.803	204.899
679.178	286.083
682.553	255.627
685.928	136.655
689.302	77.924
692.677	64.795
696.052	69.1838
699.427	83.1724
702.802	87.1024
706.177	54.3
709.551	25.8089
712.926	12.7687
716.301	6.32723
719.676	2.79479
723.051	0.952805
726.425	1.23003
729.8	0.453217
733.175	0.830627
736.55	0.327423
739.925	0.03186
743.299	0.226517
746.674	0.371658
750.049	0.162186
753.424	0.234756
756.799	1.12122
760.173	1.9166
763.548	4.1523
766.923	8.08034
770.298	14.2785
773.673	22.9273
777.048	39.3338
780.422	65.1749
783.797	77.6923
787.172	43.3224
790.547	22.2944
793.922	14.6359
797.296	10.9374
800.671	6.5444
804.046	2.5679
807.421	1.30893
810.796	1.55367
814.17	0.968781
817.545	0.703201
820.92	0.373413
824.295	1.20883
827.67	0.618179
831.045	0.059662
834.419	0.23053
837.794	0.310089
841.169	2.14438
844.544	1.10742
847.919	0.691238
851.293	0.299957
854.668	0.894379
858.043	0.734406
861.418	0.99437
864.793	1.79568
868.168	1.24297
871.542	1.09781
874.917	1.13078
878.292	1.12218
881.667	1.65968
885.042	2.21326
888.417	0.708008
891.791	1.17871
895.166	1.19318
898.541	1.16014
901.916	1.73409
905.291	1.54021
908.665	1.19179
912.04	0.610748
915.415	0.755814
918.79	1.08069
922.165	0.25354
925.539	0.633224
928.914	0.125122
932.289	0.052094
935.664	0.016602
939.039	1.28123
942.414	0.21373
945.788	0.571121
949.163	0.070984
952.538	1.59241
955.913	0.091049
959.288	0.165359
962.662	1.97362
966.037	3.92528
969.412	7.43196
972.787	14.0227
976.162	17.4545
979.537	13.3554
982.911	8.94032
986.286	7.47575
989.661	9.13373
993.036	12.9467
996.411	22.2581
999.785	34.6218
1003.16	40.3182
1006.53	28.0637
1009.91	22.6491
1013.28	26.2631
1016.66	40.3648
1020.03	45.0512
1023.41	28.2529
1026.78	21.7812
1030.16	26.6195
1033.53	33.352
1036.91	34.324
1040.28	17.1113
1043.66	7.18546
1047.03	1.87837
1050.41	0.015778
1053.78	0.996414
1057.16	0.596786
1060.53	0.911789
1063.91	2.37817
1067.28	4.7065
1070.66	8.12703
1074.03	16.4278
1077.41	23.6734
1080.78	34.5785
1084.16	45.9347
1087.53	57.8916
1090.9	87.1607
1094.28	140.384
1097.65	245.087
1101.03	389.836
1104.4	590.258
1107.78	901.555
1111.15	919.584
1114.53	462.228
1117.9	232.31
1121.28	152.249
1124.65	103.655
1128.03	62.6321
1131.4	36.0618
1134.78	20.8212
1138.15	14.9055
1141.53	9.57944
1144.9	5.7851
1148.28	3.35307
1151.65	2.84166
1155.03	0.322922
1158.4	1.69109
1161.78	0.005981
1165.15	1.30945
1168.53	0.500214
1171.9	0.109192
1175.28	0.010101
1178.65	0.596497
1182.03	0.13443
1185.4	0.627594
1188.78	0.083679
1192.15	0.843185
1195.53	0.047119
1198.9	1.0887
1202.27	0.132248
1205.65	0.668182
1209.02	0.410233
1212.4	0.403671
1215.77	0.251877
1219.15	1.56407
1222.52	1.5547
1225.9	1.32475
1229.27	1.95137
1232.65	0.907242
1236.02	0.776031
1239.4	1.91661
1242.77	1.48581
1246.15	2.79344
1249.52	2.07733
1252.9	0.802383
1256.27	1.03458
1259.65	2.32527
1263.02	1.63469
1266.4	2.01996
1269.77	1.56108
1273.15	2.3949
1276.52	1.4509
1279.89	1.69304
1283.27	2.75371
1286.64	1.62764
1290.02	1.4604
1293.39	2.05621
1296.77	1.23823
1300.14	1.55279
1303.52	1.34112
