Measurement: Raman, 532 nm, unoriented, Raman Data Processed
Mineral: Zalesiite
Rruff sample: R060228
Ideal chemistry: Cu^2+^_6_Ca(As^5+^O_4_)_2_(As^5+^O_3_OH)(OH)_6_3H_2_O
Locality: Hilarion mine, near Kamareza, Laurium, Attica Penninsula, Greece
Source: Michael Scott
Description: Radiating light blue acicular crystals
Measured chemistry: (Ca_0.53_La_0.22_Nd_0.14_Y_0.11_)_Σ=1_(Cu^2+^_5.55_Fe_0.25_Zn_0.20_)_Σ=6_(As_1.00_O_4_)_2_(As_1.00_O_3.47_(OH)_0.53_)(OH)_6_·3H_2_O; OH estimated by charge balance; H_2_O by difference;
Raman shift (cm-1)	intensity
159.092	0
161.985	8.49501
164.878	12.9335
167.77	25.1439
170.663	49.4198
173.556	59.8796
176.448	61.8453
179.341	56.8579
182.234	51.1167
185.127	50.2227
188.019	45.5768
190.912	41.9728
193.805	31.1376
196.697	21.6288
199.59	6.29948
202.483	2.85558
205.375	1.06446
208.268	2.04159
211.161	1.35405
214.054	7.02476
216.946	13.9866
219.839	22.2881
222.732	30.375
225.624	30.9421
228.517	29.6263
231.41	20.7544
234.303	6.43331
237.195	1.47569
240.088	1.58597
242.981	0.738431
245.873	0.703562
248.766	0.870595
251.659	3.33004
254.551	1.54574
257.444	2.78436
260.337	2.6126
263.229	0.950723
266.122	2.38893
269.015	5.07311
271.908	5.68284
274.8	7.95665
277.693	13.4522
280.586	18.921
283.478	21.4783
286.371	25.7761
289.264	23.0608
292.156	23.3603
295.049	28.5014
297.942	28.3819
300.835	33.8863
303.727	41.8021
306.62	56.3349
309.513	67.6457
312.405	73.2318
315.298	86.5916
318.191	89.1572
321.084	83.477
323.976	75.846
326.869	62.4416
329.762	45.1035
332.654	39.6277
335.547	25.9153
338.44	21.1672
341.332	17.6451
344.225	10.5019
347.118	5.42938
350.01	2.24809
352.903	1.70897
355.796	0.971501
358.689	0.552163
361.581	1.69227
364.474	2.64567
367.367	2.08585
370.259	0.161328
373.152	1.45237
376.045	8.97613
378.938	11.7725
381.83	14.8075
384.723	34.4227
387.616	43.0515
390.508	42.5185
393.401	48.7079
396.294	47.9356
399.186	35.9599
402.079	23.6653
404.972	12.99
407.865	7.51593
410.757	8.08088
413.65	13.7237
416.543	16.6665
419.435	20.1193
422.328	27.0239
425.221	32.252
428.113	27.0868
431.006	20.8117
433.899	15.921
436.791	2.79221
439.684	7.07498
442.577	13.6306
445.469	21.8348
448.362	36.3072
451.255	57.5658
454.148	85.3629
457.04	120.144
459.933	161.203
462.826	217.143
465.718	269.473
468.611	337.465
471.504	404.954
474.397	450.548
477.289	442.164
480.182	388.521
483.075	308.068
485.967	237.429
488.86	179.887
491.753	143.237
494.645	105.753
497.538	73.1036
500.431	48.8092
503.324	28.2719
506.216	18.8041
509.109	6.80108
512.002	1.16478
514.894	4.31216
517.787	3.354
520.68	0.072823
523.572	8.45595
526.465	12.28
529.358	13.5348
532.25	11.9236
535.143	7.06936
538.036	6.1773
540.929	1.19411
543.821	1.94296
546.714	2.26214
549.607	5.24272
552.5	6.47351
555.392	4.65635
558.285	6.13289
561.178	2.54985
564.07	1.44611
566.963	2.39301
569.856	2.55424
572.748	5.99842
575.641	1.78665
578.534	0.260571
581.427	1.9975
584.319	1.87401
587.212	0.128852
590.105	0.618221
592.997	0.839432
595.89	5.3457
598.783	5.75694
601.675	13.3098
604.568	16.357
607.461	13.701
610.353	15.8897
613.246	19.44
616.139	24.59
619.032	32.7446
621.924	30.4643
624.817	34.6551
627.71	34.58
630.602	35.944
633.495	23.3781
636.388	18.4086
639.28	8.20097
642.173	8.34876
645.066	7.7937
647.958	7.32914
650.851	3.78807
653.744	6.19734
656.637	10.9403
659.529	8.01018
662.422	16.2798
665.315	19.0348
668.207	26.6387
671.1	25.8897
673.993	22.0736
676.885	17.4829
679.778	18.7372
682.671	16.776
685.564	16.5669
688.456	15.5862
691.349	18.0753
694.242	18.1603
697.134	16.4382
700.027	16.1669
702.92	14.7491
705.812	13.3954
708.705	10.5123
711.598	13.6208
714.491	12.3061
717.383	10.6342
720.276	8.21488
723.169	8.36555
726.061	3.35483
728.954	3.81967
731.847	3.85684
734.74	1.96408
737.632	2.67018
740.525	0.663293
743.418	0.239699
746.31	0.132154
749.203	3.92093
752.096	1.33997
754.988	2.35431
757.881	1.60119
760.774	1.67138
763.667	1.75076
766.559	2.37309
769.452	0.889559
772.345	1.13759
775.237	0.274741
778.13	1.57017
781.023	0.330089
783.915	0.342833
786.808	0.75899
789.701	6.21812
792.593	5.53162
795.486	9.02451
798.379	12.0675
801.271	19.3693
804.164	27.3425
807.057	41.6049
809.95	58.964
812.842	78.6972
815.735	100.846
818.628	119.755
821.52	144.339
824.413	164.917
827.306	174.759
830.198	184.612
833.091	193.783
835.984	195.257
838.877	202.302
841.769	218.402
844.662	238.772
847.555	273.767
850.447	311.484
853.34	360.84
856.233	421.885
859.125	477.581
862.018	534.707
864.911	569.707
867.804	570.709
870.696	532.881
873.589	466.96
876.482	391.713
879.375	308.577
882.267	242.106
885.16	183.446
888.053	142.481
890.945	115.763
893.838	85.2068
896.731	66.8193
899.623	55.1313
902.516	42.1081
905.409	29.8838
908.302	22.2277
911.194	16.1181
914.087	10.3958
916.98	1.84339
919.872	0.36928
922.765	5.09126
925.658	3.30792
928.55	0.098574
931.443	2.07224
934.336	1.37893
937.229	0.422075
940.121	2.12112
943.014	0.486483
945.907	0.631422
948.799	0.907538
951.692	4.48014
954.585	1.64411
957.477	7.15837
960.37	8.6699
963.263	10.0113
966.155	11.001
969.048	16.1947
971.941	15.2995
974.834	19.2836
977.726	24.1228
980.619	27.0388
983.512	27.8581
986.404	28.2901
989.297	31.3557
992.19	34.2411
995.082	39.5045
997.975	56.9499
1000.87	78.4199
1003.76	125.842
1006.65	214.458
1009.55	257.152
1012.44	187.737
1015.33	181.724
1018.22	133.801
1021.12	73.6863
1024.01	46.7152
1026.9	31.6446
1029.8	18.3717
1032.69	14.6294
1035.58	8.58154
1038.47	11.2622
1041.37	5.37146
1044.26	5.25344
1047.15	6.21095
1050.04	0.18848
1052.94	3.5241
1055.83	1.86867
1058.72	0.155042
1061.62	1.20298
1064.51	3.74857
1067.4	1.4479
1070.29	0.116768
1073.18	0.525432
1076.08	0.844935
1078.97	0.432421
1081.86	1.99474
1084.76	0.95213
1087.65	0.1278
1090.54	0.672005
1093.43	4.0255
1096.33	6.18495
1099.22	1.14347
1102.11	7.08763
1105.01	6.45415
1107.9	7.11794
1110.79	5.70469
1113.68	6.65698
1116.58	13.5601
1119.47	11.2509
1122.36	11.0255
1125.25	16.7731
1128.15	21.291
1131.04	25.3524
1133.93	29.7698
1136.83	25.1725
1139.72	18.88
1142.61	22.2687
1145.5	14.6323
1148.4	11.5495
1151.29	10.0196
1154.18	8.18097
1157.07	7.56433
1159.97	5.69598
1162.86	4.70505
1165.75	6.05839
1168.64	3.47104
1171.54	4.61079
1174.43	2.32801
1177.32	0.881902
1180.21	3.70452
1183.11	0.818744
1186	1.06483
1188.89	2.20063
1191.79	1.38289
1194.68	0.447751
1197.57	1.01449
1200.46	0.411669
1203.36	0.625484
1206.25	0.434993
1209.14	2.20173
1212.04	2.70513
1214.93	4.79186
1217.82	0.136266
1220.71	5.1765
1223.61	2.16651
1226.5	2.88738
1229.39	3.27303
1232.28	3.41543
1235.18	4.94648
1238.07	1.51418
1240.96	2.88294
1243.86	0.161309
1246.75	1.96966
1249.64	2.5446
1252.53	3.94618
1255.42	1.75029
1258.32	1.38187
1261.21	3.27932
1264.1	4.5092
1267	2.65398
1269.89	3.72606
1272.78	1.65353
1275.67	1.85541
1278.57	4.54127
1281.46	0.34196
1284.35	2.45342
1287.24	1.70048
1290.14	1.48948
1293.03	0.420621
1295.92	2.99239
1298.82	5.45918
1301.71	0.020735
