Measurement: Raman, 532 nm, unoriented, Raman Data Processed
Mineral: Zanazziite
Rruff sample: R050578
Ideal chemistry: Ca_2_Mg_5_Be_4_(PO_4_)_6_(OH)_4_6H_2_O
Locality: Lavra da Ilha pegmatite, Taquaral, Minas Gerais, Brazil
Source: University of Arizona Mineral Museum
Description: Mass of pale green acicular crystals associated with eosphorite
Measured chemistry: Ca_2.00_Be_4.00_(Mg_2.48_Fe^2+^_1.80_Mn_0.33_Al_0.26_[box]_0.13_)_Σ=5_(P_1.00_O_4_)_6_(OH)_4_·6H_2_O ; Be not measured but estimated by difference and charge balance
Raman shift (cm-1)	intensity
149.934	0
152.826	45.6914
155.719	131.359
158.612	129.454
161.504	212.157
164.397	310.396
167.29	409.365
170.183	444.293
173.075	476.144
175.968	433.425
178.861	411.931
181.753	361.121
184.646	345.148
187.539	279.852
190.431	199.277
193.324	159.58
196.217	115.794
199.109	120.037
202.002	131.925
204.895	118.209
207.788	157.303
210.68	143.503
213.573	152.311
216.466	148.618
219.358	90.4434
222.251	97.4209
225.144	44.499
228.036	23.9512
230.929	13.0713
233.822	7.85742
236.715	11.6973
239.607	30.1904
242.5	28.9307
245.393	37.7246
248.286	62.8965
251.178	81.001
254.071	78.3809
256.964	62.7344
259.856	81.9277
262.749	57.8935
265.642	65.3799
268.534	88.6719
271.427	43.1494
274.32	29.7656
277.212	42.3887
280.105	26.0596
282.998	35.2168
285.891	14.1055
288.783	46.5117
291.676	15.7646
294.569	9.67383
297.461	23.2832
300.354	5.57227
303.247	17.8115
306.14	7.06934
309.032	8.30176
311.925	22.8379
314.818	55.2588
317.71	50.2978
320.603	59.9697
323.496	33.3398
326.389	16.6787
329.281	58.4678
332.174	64.6064
335.067	76.666
337.959	45.6211
340.852	30.1387
343.745	33.0371
346.637	2.11621
349.53	5.63867
352.423	10.8018
355.315	13.8369
358.208	16.6182
361.101	54.1006
363.994	74.8213
366.886	73.083
369.779	77.4238
372.672	141.297
375.565	183.246
378.457	218.705
381.35	233.315
384.243	252.959
387.135	266.885
390.028	299.957
392.921	325.698
395.813	365.326
398.706	406.085
401.599	398.507
404.491	402.887
407.384	368.243
410.277	327.031
413.17	304.983
416.062	247.21
418.955	187.797
421.848	117.675
424.74	94.0811
427.633	102.374
430.526	95.8545
433.418	130.302
436.311	130.442
439.204	120.348
442.097	100.004
444.989	107.136
447.882	59.5078
450.775	45.0098
453.667	46.9522
456.56	49.2129
459.453	33.4658
462.346	46.5635
465.238	77.7266
468.131	70.2324
471.024	87.9404
473.916	59.9404
476.809	35.2217
479.702	11.8574
482.594	13.6533
485.487	1.49707
488.38	8.12695
491.273	6.71875
494.165	4.58691
497.058	10.8389
499.951	7.16504
502.843	41.3535
505.736	16.2393
508.629	18.001
511.522	25.0605
514.414	7.16894
517.307	8.02441
520.2	32.4785
523.092	6.11816
525.985	25.5771
528.878	35.7812
531.77	33.8945
534.663	35.3701
537.556	44.0898
540.448	78.9551
543.341	150.281
546.234	173.173
549.127	219.773
552.019	288.377
554.912	335.346
557.805	346.426
560.697	355.384
563.59	339.333
566.483	321.96
569.376	332.345
572.268	319.97
575.161	316.742
578.054	279.613
580.946	260.949
583.839	253.397
586.732	235.181
589.625	230.617
592.517	170.704
595.41	171.828
598.303	107.3
601.195	138.384
604.088	126.453
606.981	79.0019
609.874	57.7315
612.766	41.6494
615.659	49.7949
618.552	53.5772
621.444	76.0254
624.337	137.829
627.23	208.102
630.122	232.749
633.015	240.086
635.908	223.288
638.801	212.877
641.693	206.131
644.586	170.89
647.479	114.231
650.371	82.5478
653.264	57.6143
656.157	6.76953
659.049	29.3281
661.942	17.8672
664.835	15.3086
667.727	12.5752
670.62	1.36133
673.513	2.16504
676.406	8.43066
679.298	12.3057
682.191	29.623
685.084	20.0557
687.976	22.5078
690.869	48.8652
693.762	52.1182
696.654	5.31445
699.547	38.3301
702.44	29.127
705.333	39.6289
708.225	61.7744
711.118	33.6455
714.011	23.8242
716.904	51.082
719.796	32.9883
722.689	18.7354
725.582	2.40918
728.474	59.5566
731.367	52.4131
734.26	40.6836
737.152	6.85742
740.045	48.5635
742.938	12.8135
745.831	48.2822
748.723	27.1465
751.616	51.2022
754.509	31.7617
757.401	52.4609
760.294	62.708
763.187	48.7422
766.08	66.1035
768.972	51.8828
771.865	84.7109
774.758	100.655
777.65	55.8057
780.543	61.4199
783.436	63.1016
786.328	78.0801
789.221	75.7705
792.114	35.7783
795.006	22.9629
797.899	2.77832
800.792	10.2803
803.685	29.4883
806.577	43.7598
809.47	32.9453
812.363	24.4375
815.255	6.35742
818.148	19.3672
821.041	13.54
823.933	67.5
826.826	44.7412
829.719	37.3565
832.612	45.0791
835.504	33.1045
838.397	9.4707
841.29	23.1562
844.182	25.7832
847.075	48.2998
849.968	19.6172
852.861	39.8213
855.753	43.6172
858.646	11.6621
861.539	35.1787
864.431	63.5459
867.324	35.0029
870.217	75.1094
873.11	80.7383
876.002	31.2959
878.895	25.6475
881.788	31.6514
884.68	39.1357
887.573	8.28711
890.466	22.2959
893.358	15.0957
896.251	26.2305
899.144	15.2998
902.037	26.6025
904.929	41.3916
907.822	13.5977
910.715	51.3701
913.607	21.3994
916.5	46.8018
919.393	0.331055
922.285	35.4414
925.178	35.1152
928.071	7.23438
930.964	35.4268
933.856	40.5176
936.749	97.4707
939.642	109.42
942.534	138.465
945.427	169.501
948.32	176.5
951.212	277.136
954.105	385.852
956.998	461.869
959.891	547.921
962.783	663.211
965.676	827.537
968.569	1084.99
971.461	1395.99
974.354	1849.91
977.247	2293.41
980.139	2636.89
983.032	2642.16
985.925	2528.58
988.818	2288.59
991.71	2042.78
994.603	1751.95
997.496	1458.83
1000.39	1227.92
1003.28	998.969
1006.17	804.669
1009.07	649.557
1011.96	586.839
1014.85	512.02
1017.75	406.475
1020.64	350.843
1023.53	259.596
1026.42	221.832
1029.32	225.891
1032.21	180.065
1035.1	166.574
1037.99	97.9082
1040.89	53.875
1043.78	27.4043
1046.67	9.77539
1049.56	19.6982
1052.46	12.1611
1055.35	15.4414
1058.24	1.89648
1061.13	5.20117
1064.03	18.8047
1066.92	2.03027
1069.81	44.8301
1072.71	18.709
1075.6	27.5576
1078.49	15.3066
1081.38	25.0518
1084.28	42.6065
1087.17	26.9717
1090.06	8.80469
1092.95	3.60449
1095.85	9.99414
1098.74	25.083
1101.63	53.8272
1104.53	19.9072
1107.42	12.9492
1110.31	14.5342
1113.2	3.33398
1116.1	36.9228
1118.99	45.7754
1121.88	32.1748
1124.78	8.74707
1127.67	53.4463
1130.56	32.0195
1133.45	24.0869
1136.35	34.1103
1139.24	57.3818
1142.13	42.8379
1145.02	39.2783
1147.92	19.082
1150.81	8.20801
1153.7	46.5166
1156.59	19.6328
1159.49	26.0127
1162.38	16.0986
1165.27	13.123
1168.16	8.27441
1171.06	51.668
1173.95	5.96484
1176.84	40.1133
1179.74	40.3897
1182.63	17.6465
1185.52	38.1172
1188.41	21.6611
1191.31	0.21875
1194.2	16.04
1197.09	27.7881
1199.98	25.126
1202.88	22.0098
1205.77	53.4648
1208.66	35.1631
1211.56	22.6084
1214.45	60.3057
1217.34	83.6553
1220.23	47.2764
1223.13	34.8379
1226.02	41.831
1228.91	15.5488
1231.81	46.544
1234.7	67.6348
1237.59	12.5645
1240.48	37.5312
1243.38	17.5469
1246.27	47.918
1249.16	49.624
1252.05	57.0381
1254.95	79.3682
1257.84	66.2715
1260.73	17.835
1263.62	16.8633
1266.52	50.831
1269.41	93.6826
1272.3	66.4238
1275.19	59.1084
1278.09	44.5156
1280.98	17.7842
1283.87	45.5537
1286.77	20.1182
1289.66	15.0264
1292.55	11.041
1295.44	18.8682
1298.34	32.0752
1301.23	25.6895
