Measurement: Raman, 514 nm, unoriented, Raman Data Processed
Mineral: Zaratite
Rruff sample: R050268
Ideal chemistry: Ni_3_CO_3_(OH)_4_4H_2_O
Locality: Lord Brassy mine, Tasmania, Australia
Source: Marcus Origlieri
Description: Green amorphous crust, intimately associated with nepouite
Measured chemistry: Ni_3.00_(CO_3_)(OH)_4_Â·4H_2_O
Raman shift (cm-1)	intensity
155.863	0
160.013	82.803
164.161	85.029
168.308	81.245
172.452	166.3
176.594	148.843
180.734	239.671
184.872	408.402
189.008	312.967
193.143	477.865
197.275	681.715
201.405	912.173
205.534	895.044
209.66	771.663
213.784	528.286
217.907	865.234
222.027	1650.2
226.146	3083.34
230.263	4040.18
234.377	3931.72
238.49	2040.08
242.601	1065.12
246.709	809.953
250.816	511.424
254.921	478.213
259.024	394.605
263.125	334.521
267.224	249.379
271.321	166.643
275.416	74.551
279.51	50.043
283.601	15.904
287.69	30.432
291.778	47.968
295.863	82.938
299.947	36.198
304.029	32.877
308.108	9.271
312.186	0.874
316.262	112.692
320.336	149.389
324.408	91.136
328.478	50.599
332.546	82.97
336.612	194.414
340.677	500.858
344.739	1053.27
348.799	1206.65
352.858	622.978
356.915	546.092
360.969	523.972
365.022	761.726
369.073	1245.46
373.122	1382.18
377.169	1912.87
381.215	3131.31
385.258	5118.03
389.299	6520.67
393.339	4307.86
397.376	2129.19
401.412	1479.21
405.446	1295.95
409.478	1155.04
413.508	1118.78
417.536	1210.6
421.562	1222.06
425.586	1371.37
429.609	1451.26
433.629	1624.28
437.648	1726.16
441.665	1772.64
445.68	1860.94
449.693	1768.1
453.704	1911.79
457.713	1837.57
461.721	1840.82
465.726	1810.62
469.73	1659.07
473.731	1431.09
477.731	1072.93
481.729	872.965
485.725	749.505
489.72	604.449
493.712	472.18
497.703	420.596
501.691	423.943
505.678	415.598
509.663	473.309
513.646	578.052
517.627	713.288
521.607	906.982
525.584	991.921
529.56	1036.61
533.534	950.057
537.506	841.279
541.476	735.291
545.444	624.111
549.41	453.771
553.375	324.282
557.337	236.678
561.298	73.941
565.257	65.047
569.214	32.954
573.17	2.353
577.123	35.886
581.075	18.708
585.024	5.818
588.972	18.886
592.918	66.488
596.863	131.055
600.805	218.662
604.746	313.419
608.685	313.341
612.621	511.508
616.557	725.007
620.49	867.761
624.421	734.737
628.351	652.54
632.279	466.759
636.205	297.647
640.129	274.574
644.051	230.72
647.972	216.583
651.89	244.133
655.807	315.896
659.722	324.265
663.636	401.181
667.547	494.275
671.457	646.946
675.365	917.956
679.271	1422.6
683.175	2636.68
687.077	4923.1
690.978	6564.47
694.877	4884.43
698.774	2791.7
702.669	1797.92
706.562	1385.11
710.454	1256.26
714.344	839.024
718.232	554.095
722.118	440.482
726.002	362.425
729.885	327.973
733.766	169.941
737.645	198.655
741.522	217.085
745.397	250.141
749.271	197.705
753.143	189.162
757.013	123.518
760.881	171.923
764.748	150.802
768.613	50.673
772.476	34.531
776.337	35.372
780.196	44.196
784.054	6.999
787.91	45.231
791.764	78.642
795.616	51.391
799.467	15.411
803.316	83.518
807.163	55.182
811.008	29.814
814.851	7.272
818.693	9.323
822.533	9.413
826.371	3.264
830.208	66.586
834.042	8.928
837.875	53.547
841.706	65.033
845.536	76.532
849.363	29.032
853.189	9.458
857.013	7.05
860.836	82.565
864.656	71.085
868.475	113.758
872.292	182.143
876.108	166.736
879.922	106.917
883.733	36.174
887.544	17.976
891.352	11.98
895.159	67.137
898.964	106.348
902.767	80.624
906.568	85.952
910.368	89.325
914.166	229.755
917.962	199.264
921.757	339.821
925.55	430.377
929.341	555.004
933.13	620.537
936.918	581.083
940.703	615.798
944.488	635.75
948.27	573.517
952.051	649.57
955.83	763.004
959.607	1029.07
963.383	1413.77
967.156	2241.88
970.928	3373.59
974.699	4721.4
978.468	5970.7
982.234	5694.64
986	4658.21
989.763	3381.48
993.525	2075.84
997.285	1449.32
1001.04	954.256
1004.8	652.502
1008.55	484.67
1012.31	366.496
1016.06	371.772
1019.81	303.825
1023.56	344.981
1027.31	415.196
1031.05	541.522
1034.79	699.842
1038.53	764.707
1042.27	828.266
1046.01	1052.79
1049.75	1301
1053.48	1525.2
1057.22	1911.24
1060.95	2523.29
1064.68	3196.03
1068.4	4013.95
1072.13	4653.62
1075.86	5015.13
1079.58	4893.53
1083.3	4485.14
1087.02	3980.79
1090.74	3420.5
1094.45	2980.74
1098.17	2789.28
1101.88	2593.38
1105.59	2543.51
1109.3	2013.68
1113.01	1375.71
1116.71	1025.86
1120.42	637.922
1124.12	595.072
1127.82	496.681
1131.52	422.2
1135.22	316.341
1138.91	318.439
1142.61	355.379
1146.3	254.937
1149.99	236.295
1153.68	175.173
1157.37	116.165
1161.06	124.367
1164.74	164.448
1168.42	115.902
1172.1	89.77
1175.78	164.726
1179.46	112.015
1183.14	107.216
1186.81	61.765
1190.48	45.211
1194.15	2.515
1197.83	2.145
1201.49	29.384
1205.16	10.182
1208.82	21.16
1212.49	21.701
1216.15	5.615
1219.81	12.767
1223.46	22.706
1227.12	31.411
1230.78	9.824
1234.43	48.962
1238.08	35.839
1241.73	22.525
1245.38	43.222
1249.03	48.258
1252.67	18.381
1256.31	15.24
1259.95	3.265
1263.6	19.35
1267.23	36.719
1270.87	16.857
1274.51	8.772
1278.14	15.55
1281.77	0.124
1285.4	0.052
1289.03	16.966
1292.66	10.597
1296.28	65.973
1299.91	66.113
1303.53	2.033
1307.15	68.243
1310.77	18.045
1314.38	22.277
1318	96.23
1321.61	78.004
1325.23	44.547
1328.84	105.993
1332.45	140.436
1336.06	256.117
1339.66	236.893
1343.27	320.178
1346.87	363.021
1350.47	366.138
1354.07	400.375
1357.67	458.127
1361.26	401.973
1364.86	336.854
1368.45	404.064
1372.04	369.866
1375.63	362.289
1379.22	341.829
1382.81	357.94
1386.39	357.5
1389.98	341.483
1393.56	409.636
1397.14	389.254
1400.72	398.729
1404.3	355.192
1407.87	359.697
1411.45	338.929
1415.02	471.461
1418.59	411.558
1422.16	463.174
1425.73	486.235
1429.29	381.617
1432.86	315.624
1436.42	379.254
1439.98	348.744
1443.54	335.428
1447.1	260.531
1450.66	160.78
1454.21	177.238
1457.77	191.737
1461.32	165.503
1464.87	172.869
1468.42	72.033
1471.96	76.176
1475.51	56.359
1479.06	55.118
1482.6	30.134
1486.14	55.974
1489.68	62.091
