Measurement: Raman, 532 nm, unoriented, Raman Data Processed
Mineral: Zaratite
Rruff sample: R050268
Ideal chemistry: Ni_3_CO_3_(OH)_4_4H_2_O
Locality: Lord Brassy mine, Tasmania, Australia
Source: Marcus Origlieri
Description: Green amorphous crust, intimately associated with nepouite
Measured chemistry: Ni_3.00_(CO_3_)(OH)_4_Â·4H_2_O
Raman shift (cm-1)	intensity
162.93	0
165.823	0.005983
168.716	0.553861
171.608	0.8457
174.501	3.173
177.394	2.44575
180.286	4.07987
183.179	4.10748
186.072	5.13434
188.965	5.68698
191.857	3.24713
194.75	4.50181
197.643	4.50678
200.535	4.57016
203.428	3.10135
206.321	4.00024
209.214	2.37249
212.106	3.89614
214.999	6.08785
217.892	6.01287
220.784	8.01531
223.677	6.48961
226.57	8.13143
229.462	10.3837
232.355	10.7662
235.248	11.5348
238.141	13.1664
241.033	11.8929
243.926	9.27473
246.819	9.99508
249.711	8.87437
252.604	6.66373
255.497	6.69898
258.389	6.14823
261.282	4.88683
264.175	2.54751
267.067	1.73411
269.96	2.00414
272.853	0.070926
275.746	0.489759
278.638	0.01012
281.531	0.153942
284.424	0.454712
287.316	0.01452
290.209	0.853531
293.102	0.114486
295.995	1.41496
298.887	2.02075
301.78	1.93887
304.673	4.06812
307.565	4.63492
310.458	4.22305
313.351	4.02965
316.243	3.29235
319.136	3.90228
322.029	4.44267
324.921	4.54735
327.814	3.84054
330.707	2.83299
333.6	2.21137
336.492	2.31414
339.385	1.03196
342.278	0.180672
345.17	0.333397
348.063	0.01111
350.956	0.272711
353.849	0.16961
356.741	0.252703
359.634	0.217722
362.527	0.796197
365.419	0.246522
368.312	1.37546
371.205	2.8576
374.097	3.49818
376.99	5.31039
379.883	7.42066
382.776	9.69372
385.668	10.9686
388.561	13.2012
391.454	15.2506
394.346	14.6769
397.239	14.2165
400.132	14.7417
403.024	12.6667
405.917	14.7338
408.81	15.1686
411.702	15.1959
414.595	17.6088
417.488	18.9728
420.381	21.6474
423.273	23.6663
426.166	26.0003
429.059	29.5295
431.951	31.984
434.844	35.1968
437.737	37.8955
440.63	37.7724
443.522	39.5908
446.415	38.6837
449.308	38.9592
452.2	37.3992
455.093	35.8465
457.986	32.9207
460.878	31.9027
463.771	26.7917
466.664	25.0976
469.557	20.7007
472.449	20.4247
475.342	14.7209
478.235	11.5616
481.127	9.67761
484.02	5.77645
486.913	4.7946
489.805	2.12916
492.698	0.595706
495.591	0.06735
498.483	0.565025
501.376	0.952551
504.269	0.078245
507.162	0.474855
510.054	0.461657
512.947	0.044301
515.84	0.436943
518.732	0.52005
521.625	0.315849
524.518	0.361573
527.41	0.596459
530.303	1.96734
533.196	0.523989
536.089	0.680618
538.981	0.663736
541.874	0.037038
544.767	0.708305
547.659	0.36393
550.552	1.83319
553.445	0.20673
556.337	0.357261
559.23	0.754773
562.123	0.424676
565.016	0.347164
567.908	0.063912
570.801	0.408268
573.694	0.040534
576.586	0.051371
579.479	2.25672
582.372	3.50381
585.264	4.2157
588.157	6.60128
591.05	6.52192
593.942	9.66233
596.835	10.1648
599.728	12.8858
602.621	13.3871
605.513	13.2734
608.406	13.2243
611.299	13.824
614.191	13.3957
617.084	13.3246
619.977	12.3099
622.87	10.5452
625.762	10.0589
628.655	7.33909
631.548	6.61169
634.44	5.81381
637.333	3.89
640.226	4.08018
643.118	1.8763
646.011	0.952248
648.904	2.05242
651.797	0.219931
654.689	0.884977
657.582	0.282032
660.475	0.234359
663.367	0.36745
666.26	0.44882
669.153	0.395716
672.045	0.546024
674.938	0.794578
677.831	2.13512
680.723	0.120713
683.616	2.03878
686.509	1.0048
689.402	1.11911
692.294	1.77927
695.187	3.29466
698.08	1.90653
700.972	2.22497
703.865	2.64153
706.758	4.04333
709.65	3.81265
712.543	3.29418
715.436	2.90422
718.329	1.2751
721.221	2.13101
724.114	0.844814
727.007	1.64498
729.899	0.26077
732.792	0.615559
735.685	1.82983
738.577	3.31778
741.47	2.25583
744.363	2.04503
747.256	1.37861
750.148	2.4527
753.041	1.0805
755.934	1.91297
758.826	0.704012
761.719	0.280237
764.612	0.997453
767.505	0.114565
770.397	0.030059
773.29	0.0548
776.183	0.026004
779.075	0.570324
781.968	0.2348
784.861	0.124373
787.753	0.398544
790.646	0.852398
793.539	0.242051
796.432	1.06451
799.324	0.718586
802.217	0.138712
805.11	0.669701
808.002	1.11438
810.895	1.05891
813.788	2.32242
816.68	2.18921
819.573	1.13625
822.466	1.72563
825.359	2.87813
828.251	3.57034
831.144	3.44845
834.037	3.09563
836.929	3.3836
839.822	4.65376
842.715	4.43351
845.607	3.91725
848.5	4.49405
851.393	4.73915
854.285	4.77175
857.178	3.57879
860.071	3.31015
862.964	4.19029
865.856	1.84476
868.749	2.76707
871.642	2.36859
874.534	0.880278
877.427	0.224487
880.32	1.06478
883.212	0.647303
886.105	0.22671
888.998	1.149
891.891	0.003187
894.783	0.036884
897.676	0.409186
900.569	0.149507
903.461	0.274878
906.354	0.158591
909.247	0.114418
912.139	2.42749
915.032	4.24054
917.925	7.76122
920.818	11.593
923.71	16.3022
926.603	24.2486
929.496	23.0832
932.388	22.5208
935.281	20.4999
938.174	20.1555
941.067	18.7472
943.959	18.3142
946.852	18.764
949.745	22.338
952.637	25.1317
955.53	32.5157
958.423	41.2527
961.315	52.0774
964.208	63.3766
967.101	75.0489
969.994	88.0528
972.886	96.8326
975.779	105.334
978.672	98.0785
981.564	89.942
984.457	76.4429
987.35	60.6004
990.242	46.5518
993.135	33.0373
996.028	22.0577
998.92	13.084
1001.81	5.89856
1004.71	1.87129
1007.6	0.523965
1010.49	0.608314
1013.38	0.298221
1016.28	0.097374
1019.17	1.06424
1022.06	0.824209
1024.95	2.81778
1027.85	6.58661
1030.74	10.169
1033.63	13.6428
1036.53	17.6058
1039.42	22.6207
1042.31	28.651
1045.2	34.9547
1048.1	43.6616
1050.99	53.2202
1053.88	65.006
1056.77	76.4984
1059.67	91.6328
1062.56	108.681
1065.45	126.671
1068.35	142.787
1071.24	159.315
1074.13	169.441
1077.02	173.95
1079.92	170.048
1082.81	160.345
1085.7	144.991
1088.59	125.696
1091.49	107.196
1094.38	90.1936
1097.27	72.2246
1100.16	57.9596
1103.06	47.4432
1105.95	36.0798
1108.84	28.3875
1111.74	21.0057
1114.63	14.96
1117.52	11.1141
1120.41	7.07552
1123.31	5.42692
1126.2	2.46118
1129.09	2.27845
1131.98	0.716965
1134.88	0.81086
1137.77	0.087985
1140.66	0.743507
1143.56	0.578788
1146.45	0.303862
1149.34	0.462351
1152.23	0.248486
1155.13	0.127467
1158.02	0.213705
1160.91	0.12679
1163.8	1.42067
1166.7	0.707677
1169.59	1.70947
1172.48	1.59926
1175.38	1.87797
1178.27	2.53832
1181.16	2.75398
1184.05	2.9188
1186.95	2.54912
1189.84	2.55462
1192.73	1.65289
1195.62	1.96502
1198.52	1.30874
1201.41	2.12605
1204.3	1.83758
1207.19	1.32288
1210.09	0.920461
1212.98	0.326381
1215.87	0.809704
1218.77	0.614697
1221.66	0.213569
1224.55	0.022906
1227.44	0.127727
1230.34	0.191552
1233.23	0.726617
1236.12	0.861549
1239.02	0.873159
1241.91	0.708215
1244.8	0.213757
1247.69	0.83048
1250.59	0.055645
1253.48	1.60723
1256.37	0.939729
1259.26	0.171452
1262.16	1.78613
1265.05	0.073773
1267.94	0.645629
1270.83	0.446231
1273.73	0.590517
1276.62	0.755264
1279.51	0.746022
1282.4	0.770742
1285.3	0.926927
1288.19	0.866314
