Measurement: Raman, 532 nm, unoriented, Raman Data Processed
Mineral: Zektzerite
Rruff sample: R070485
Ideal chemistry: NaLiZrSi_6_O_15_
Locality: Washington Pass, Golden Horn Batholith, Okanogan County, Washington, USA
Source: Michael Scott
Description: Pale pink to colorless hexagonal prismatic crystal fragments
Measured chemistry: Na_1.00_Li_1.00_(Zr_0.97_Ti_0.02_Hf_0.01_)_Î£=1_Si_6.00_O_15_; trace amounts of Al and Fe; Li_2_O estimated by difference
Raman shift (cm-1)	intensity
144.852	0
147.745	147.919
150.637	1.96216
153.53	150.318
156.423	393
159.316	513.579
162.208	707.463
165.101	854.368
167.994	806.225
170.886	646.804
173.779	511.927
176.672	319.099
179.565	205.913
182.457	124.408
185.35	119.467
188.243	62.5957
191.135	60.6892
194.028	32.227
196.921	27.4722
199.813	2.26294
202.706	12.0588
205.599	34.6311
208.492	20.6414
211.384	37.0195
214.277	25.8491
217.17	33.3921
220.062	131.461
222.955	298.743
225.848	173.021
228.74	145.074
231.633	158.777
234.526	224.068
237.418	194.543
240.311	268.218
243.204	364.452
246.097	599.442
248.989	914.635
251.882	1408.61
254.775	1851.97
257.667	1336.44
260.56	705.582
263.453	439.207
266.346	247.001
269.238	203.37
272.131	249.513
275.024	389.75
277.916	696.671
280.809	1101.74
283.702	1390.85
286.594	877.433
289.487	312.266
292.38	79.2324
295.273	48.0322
298.165	48.4482
301.058	36.2549
303.951	7.97925
306.843	115.885
309.736	204.401
312.629	411.495
315.522	683.009
318.414	1130.54
321.307	1682.52
324.2	1905.84
327.092	1558.81
329.985	1392.49
332.878	1549.28
335.77	1945.49
338.663	2216.57
341.556	2470.8
344.449	2385.89
347.341	2157.7
350.234	1993.92
353.127	2096.49
356.019	2525.1
358.912	3229.53
361.805	4111.77
364.697	4731.95
367.59	4853.7
370.483	3978.29
373.375	2290.06
376.268	1234.61
379.161	675.02
382.054	320.938
384.946	113.913
387.839	3.77368
390.732	27.0046
393.624	68.4006
396.517	42.1558
399.41	71.9058
402.303	95.4714
405.195	276.153
408.088	381.858
410.981	551.8
413.873	612.26
416.766	613.243
419.659	719.385
422.551	960.445
425.444	1458.62
428.337	2146.98
431.229	2907.19
434.122	3815.82
437.015	5256.98
439.908	6269.45
442.8	5382.49
445.693	4936.24
448.586	5568.11
451.478	4795.12
454.371	3367.22
457.264	2412.41
460.156	1469.46
463.049	649.864
465.942	390.471
468.835	334.437
471.727	556.128
474.62	903.571
477.513	1418.37
480.405	1528.01
483.298	519.582
486.191	17.7253
489.084	141.982
491.976	138.468
494.869	40.0908
497.762	160.648
500.654	318.242
503.547	415.817
506.44	436.233
509.332	700.422
512.225	1063.38
515.118	1589.23
518.011	1967.61
520.903	2097.67
523.796	1831.97
526.689	1406.11
529.581	1272.3
532.474	1601.33
535.367	1999.4
538.26	1964.32
541.152	1297.16
544.045	767.303
546.938	520.751
549.83	445.047
552.723	511.608
555.616	530.393
558.508	270.002
561.401	226.798
564.294	515.242
567.187	1027.75
570.079	1516.14
572.972	2098.02
575.865	2322.38
578.757	1663.06
581.65	875.146
584.543	523.928
587.435	415.358
590.328	444.114
593.221	437.261
596.114	356.839
599.006	288.996
601.899	199.265
604.792	243.838
607.684	263.2
610.577	271.878
613.47	215.626
616.362	150.111
619.255	29.5869
622.148	20.502
625.04	13.4482
627.933	18.3835
630.826	14.7178
633.719	15.0564
636.611	39.5928
639.504	44.9956
642.397	12.9207
645.289	28.1904
648.182	22.7285
651.075	59.1885
653.967	95.4849
656.86	108.143
659.753	79.0874
662.646	37.72
665.538	12.0073
668.431	24.8176
671.324	39.2659
674.216	27.1186
677.109	44.3284
680.002	95.9453
682.894	197.905
685.787	181.575
688.68	278.063
691.573	399.669
694.465	436.269
697.358	413.858
700.251	252.624
703.143	172.149
706.036	105.444
708.929	108.748
711.822	80.5151
714.714	92.3084
717.607	39.3415
720.5	58.3218
723.392	38.9988
726.285	47.1645
729.178	53.7375
732.07	21.6516
734.963	55.095
737.856	6.74487
740.749	29.6838
743.641	44.7427
746.534	55.0825
749.427	53.3543
752.319	41.0496
755.212	76.2859
758.105	71.0928
760.997	55.8428
763.89	82.0188
766.783	80.6614
769.676	142.056
772.568	104.591
775.461	102.451
778.354	82.4761
781.246	31.1255
784.139	16.8169
787.032	55.3848
789.924	70.904
792.817	78.7278
795.71	11.459
798.602	3.64966
801.495	39.7786
804.388	61.3821
807.281	65.2529
810.173	85.053
813.066	112.912
815.959	112.904
818.851	164.722
821.744	277.467
824.637	425.047
827.529	581.827
830.422	545.847
833.315	259.082
836.208	135.614
839.1	81.4009
841.993	58.9851
844.886	78.2629
847.779	71.9839
850.671	79.325
853.564	26.6562
856.457	13.2322
859.349	5.47852
862.242	64.3232
865.135	15.9612
868.027	21.9238
870.92	9.22046
873.813	6.59424
876.706	9.07446
879.598	11.7578
882.491	41.4546
885.384	25.8755
888.276	17.6201
891.169	22.0842
894.062	29.2554
896.954	10.1211
899.847	17.8169
902.74	7.22754
905.633	29.5154
908.525	11.469
911.418	64.3594
914.311	24.7256
917.203	66.3569
920.096	176.699
922.989	227.184
925.881	348.554
928.774	440.906
931.667	641.988
934.559	736.585
937.452	969.681
940.345	1230.08
943.238	1583.76
946.13	1884.76
949.023	2368.27
951.916	2807.4
954.808	3016.51
957.701	2877.62
960.594	2824.93
963.486	2848.89
966.379	3028.3
969.272	3491.03
972.165	4457.73
975.057	5922.87
977.95	8177.19
980.843	10806.4
983.735	12998.4
986.628	12939.8
989.521	10330.2
992.413	7759.37
995.306	5733.6
998.199	4163.82
1001.09	3158.49
1003.98	2472.93
1006.88	1940.58
1009.77	1662.39
1012.66	1366.99
1015.55	1112.6
1018.45	827.207
1021.34	612.482
1024.23	396.375
1027.13	293.639
1030.02	243.545
1032.91	136.047
1035.8	23.1743
1038.7	25.4211
1041.59	2.51953
1044.48	15.6692
1047.38	33.1123
1050.27	19.9849
1053.16	4.99512
1056.05	40.7075
1058.95	3.08935
1061.84	66.7163
1064.73	84.7314
1067.62	109.281
1070.52	136.428
1073.41	141.019
1076.3	123.938
1079.19	122.608
1082.09	151.902
1084.98	124.102
1087.87	107.469
1090.77	109.945
1093.66	98.8313
1096.55	141.801
1099.44	128.082
1102.34	159.283
1105.23	147.451
1108.12	166.561
1111.01	269.588
1113.91	378.384
1116.8	573.756
1119.69	773.385
1122.59	1210.19
1125.48	1593.57
1128.37	1803.84
1131.26	1884.68
1134.16	1997.72
1137.05	1879
1139.94	1395.45
1142.83	916.164
1145.73	484.082
1148.62	258.226
1151.51	126.42
1154.4	96.3599
1157.3	36.9165
1160.19	2.42773
1163.08	1.24121
1165.98	20.5332
1168.87	36.6951
1171.76	69.6616
1174.65	57.8965
1177.55	89.5347
1180.44	33.8845
1183.33	20.8105
1186.22	6.43555
1189.12	48.9553
1192.01	14.1233
1194.9	30.5803
1197.8	13.405
1200.69	36.3674
1203.58	10.5652
1206.47	47.7725
1209.37	29.7856
1212.26	5.84546
1215.15	11.146
1218.04	54.4609
1220.94	72.0254
1223.83	46.9265
1226.72	38.3179
1229.62	27.29
1232.51	43.3513
1235.4	63.5205
1238.29	53.717
1241.19	59.7043
1244.08	30.8174
1246.97	2.28027
1249.86	73.7869
1252.76	41.7124
1255.65	23.9751
1258.54	59.7478
1261.43	56.7346
1264.33	82.8486
1267.22	79.0159
1270.11	70.1523
1273.01	52.8628
1275.9	33.6733
1278.79	32.9497
1281.68	50.2978
1284.58	40.6362
1287.47	74.5005
1290.36	14.699
