Measurement: Raman, 785 nm, unoriented, Raman Data Processed
Mineral: Zellerite
Rruff sample: R070454
Ideal chemistry: Ca(UO_2_)(CO_3_)_2_5H_2_O
Locality: Frey No. 4 mine, Red Canyon, White Canyon District, San Juan County, Utah, USA
Source: Michael Scott
Description: Aggregates of pale yellow fibers associated with yellow liebigite
Raman shift (cm-1)	intensity
174.433	0
177.325	101.03
180.218	117.827
183.111	133.509
186.003	37.2395
188.896	1.21924
191.789	9.90283
194.681	45.5818
197.574	134.248
200.467	384.041
203.359	677.501
206.252	911.477
209.145	956.258
212.038	836.785
214.93	780.192
217.823	685.08
220.716	624.279
223.608	646.485
226.501	800.572
229.394	700.563
232.286	501.646
235.179	326.514
238.072	239.307
240.965	210.24
243.857	301.866
246.75	242.262
249.643	157.061
252.535	108.523
255.428	49.1366
258.321	41.1949
261.214	111.456
264.106	72.0966
266.999	45.2806
269.892	0.61145
272.784	28.3407
275.677	6.57068
278.57	19.8883
281.462	29.2974
284.355	38.7158
287.248	42.8882
290.14	67.068
293.033	58.2362
295.926	132.529
298.819	154.108
301.711	149.955
304.604	151.733
307.497	171.88
310.389	150.162
313.282	160.912
316.175	150.445
319.067	117.646
321.96	138.875
324.853	135.484
327.746	124.293
330.638	105.509
333.531	83.5157
336.424	80.3599
339.316	67.3279
342.209	61.0624
345.102	34.8639
347.995	60.7937
350.887	45.928
353.78	82.7007
356.673	5.34509
359.565	21.0515
362.458	23.5043
365.351	27.1467
368.243	44.9614
371.136	15.9629
374.029	64.3693
376.921	11.6349
379.814	19.3093
382.707	14.5236
385.6	35.8923
388.492	45.7636
391.385	22.8518
394.278	33.6869
397.17	36.1946
400.063	30.7288
402.956	22.0292
405.849	24.2018
408.741	0.494995
411.634	35.8938
414.527	36.6891
417.419	5.41394
420.312	37.873
423.205	19.2284
426.097	30.7184
428.99	8.03186
431.883	29.7754
434.776	17.7333
437.668	14.7517
440.561	46.4797
443.454	12.4324
446.346	36.8375
449.239	41.7704
452.132	6.52588
455.024	6.35168
457.917	20.5663
460.81	16.1089
463.702	3.14771
466.595	17.0532
469.488	5.35632
472.381	14.6318
475.273	20.7322
478.166	25.0862
481.059	25.0347
483.951	15.4336
486.844	19.6877
489.737	23.5206
492.63	27.1102
495.522	6.44775
498.415	15.7747
501.308	16.1077
504.2	31.8908
507.093	50.0695
509.986	17.0348
512.878	3.07635
515.771	2.94983
518.664	41.4768
521.557	21.5073
524.449	18.5835
527.342	12.2272
530.235	13.0643
533.127	32.4391
536.02	16.5253
538.913	34.551
541.805	11.9247
544.698	28.5111
547.591	27.4842
550.484	22.7115
553.376	27.8841
556.269	18.4187
559.162	24.5797
562.054	1.93683
564.947	7.73614
567.84	15.2736
570.732	0.93042
573.625	46.2274
576.518	31.0872
579.41	5.99316
582.303	16.8589
585.196	3.62183
588.089	37.1317
590.981	36.2696
593.874	28.2584
596.767	11.6774
599.659	20.951
602.552	34.0537
605.445	24.6088
608.337	21.084
611.23	21.606
614.123	21.8593
617.016	37.5361
619.908	16.0508
622.801	19.4515
625.694	1.94721
628.586	13.2795
631.479	4.31915
634.372	17.5252
637.264	22.4844
640.157	22.4639
643.05	0.956238
645.943	8.5907
648.835	17.6783
651.728	18.8197
654.621	5.77832
657.513	10.2376
660.406	2.53308
663.299	13.6386
666.192	32.0576
669.084	37.1028
671.977	31.4849
674.87	53.5329
677.762	30.4211
680.655	32.997
683.548	42.2839
686.44	69.4973
689.333	112.806
692.226	157.201
695.119	238.156
698.011	166.059
700.904	105.814
703.797	106.61
706.689	64.2687
709.582	30.0721
712.475	2.72382
715.367	15.8581
718.26	21.4136
721.153	1.14911
724.045	7.56543
726.938	2.52222
729.831	26.1895
732.724	0.860596
735.616	42.51
738.509	34.609
741.402	105.793
744.294	238.141
747.187	398.661
750.08	745.289
752.972	1122.66
755.865	859.585
758.758	484.008
761.651	190.227
764.543	65.3832
767.436	25.0794
770.329	7.47772
773.221	35.7156
776.114	2.44598
779.007	31.6824
781.899	7.98761
784.792	19.9021
787.685	29.6301
790.578	38.1008
793.47	63.9182
796.363	58.4351
799.256	101.67
802.148	109.765
805.041	132.918
807.934	182.662
810.827	226.305
813.719	209.248
816.612	231.403
819.505	235.946
822.397	247.257
825.29	261.374
828.183	269.796
831.075	233.189
833.968	182.022
836.861	199.059
839.754	202.177
842.646	200.123
845.539	274.692
848.432	373.079
851.324	567.163
854.217	925.623
857.11	1291.61
860.002	1897.78
862.895	2798.28
865.788	4232.02
868.681	4921.11
871.573	2476.33
874.466	720.225
877.359	209.389
880.251	108.347
883.144	41.2607
886.037	24.4799
888.929	40.1134
891.822	20.1912
894.715	1.93158
897.607	15.4123
900.5	13.5163
903.393	13.9313
906.286	12.926
909.178	22.9653
912.071	9.75446
914.964	49.5672
917.856	17.8385
920.749	6.52112
923.642	4.57422
926.534	10.8629
929.427	17.3486
932.32	2.29663
935.213	12.5687
938.105	32.3603
940.998	27.8482
943.891	30.1572
946.783	36.3225
949.676	25.8714
952.569	21.2618
955.462	8.25592
958.354	25.168
961.247	31.4365
964.14	64.3409
967.032	25.5908
969.925	56.9768
972.818	32.6288
975.71	14.8576
978.603	14.597
981.496	16.5812
984.389	4.4632
987.281	9.13977
990.174	8.89807
993.067	22.7084
995.959	23.4399
998.852	11.8972
1001.75	24.0453
1004.64	15.9833
1007.53	12.2872
1010.42	13.6882
1013.32	24.8919
1016.21	29.0914
1019.1	16.758
1021.99	15.0349
1024.89	10.7455
1027.78	8.79492
1030.67	24.2982
1033.56	4.45056
1036.46	4.7276
1039.35	10.6811
1042.24	0.692505
1045.13	13.558
1048.03	10.0494
1050.92	20.9026
1053.81	27.9459
1056.71	45.7686
1059.6	40.3995
1062.49	101.927
1065.38	231.954
1068.28	350.448
1071.17	640.591
1074.06	795.225
1076.95	390.911
1079.85	352.288
1082.74	656.468
1085.63	1152.49
1088.53	1739.23
1091.42	892.119
1094.31	258.635
1097.2	57.2388
1100.1	29.7
1102.99	21.7237
1105.88	22.5301
1108.78	13.0516
1111.67	28.4309
1114.56	35.2064
1117.45	24.6502
1120.35	77.8815
1123.24	13.1718
1126.13	28.3624
1129.02	30.5287
1131.92	10.942
1134.81	32.1221
1137.7	19.2167
1140.59	18.3416
1143.49	7.88959
1146.38	7.35156
1149.27	10.923
1152.16	19.7283
1155.06	21.1687
1157.95	6.92725
1160.84	10.6754
1163.74	20.2543
1166.63	0.887939
1169.52	1.86633
1172.41	17.5597
1175.31	43.7877
1178.2	18.9767
1181.09	74.1965
1183.98	65.0364
1186.88	66.0747
1189.77	77.8397
1192.66	88.1085
1195.56	93.5576
1198.45	115.301
1201.34	102.167
1204.23	110.805
1207.13	118.846
1210.02	130.105
1212.91	71.5946
1215.8	96.0669
1218.7	62.9778
1221.59	42.6224
1224.48	55.6389
1227.38	37.5994
1230.27	4.60706
1233.16	16.4872
1236.05	10.1979
1238.95	6.54724
1241.84	13.4695
1244.73	20.4104
1247.62	10.0236
1250.52	33.7013
1253.41	12.8195
1256.3	17.6439
1259.19	52.0102
1262.09	11.438
