Measurement: Raman, 532 nm, unoriented, Raman Data Processed
Mineral: Zellerite
Rruff sample: R070454
Ideal chemistry: Ca(UO_2_)(CO_3_)_2_5H_2_O
Locality: Frey No. 4 mine, Red Canyon, White Canyon District, San Juan County, Utah, USA
Source: Michael Scott
Description: Aggregates of pale yellow fibers associated with yellow liebigite
Raman shift (cm-1)	intensity
175.708	0
178.6	63.6929
181.493	46.1821
184.386	96.5542
187.278	32.4028
190.171	12.499
193.064	85.1909
195.957	102.071
198.849	414.179
201.742	748.642
204.635	1010.45
207.527	1161.11
210.42	1083.42
213.313	900.603
216.205	822.001
219.098	681.323
221.991	751.387
224.883	850.799
227.776	1000.06
230.669	704.906
233.562	438.82
236.454	304.772
239.347	349.382
242.24	386.541
245.132	307.655
248.025	249.83
250.918	192.355
253.81	70.2681
256.703	59.2041
259.596	122.497
262.489	109.394
265.381	46.5366
268.274	11.4312
271.167	12.5967
274.059	15.5771
276.952	11.083
279.845	36.2031
282.738	20.6567
285.63	79.2856
288.523	100.967
291.416	54.5503
294.308	100.767
297.201	208.54
300.094	165.257
302.986	186.008
305.879	101.955
308.772	119.362
311.664	153.194
314.557	140.141
317.45	127.381
320.343	142.142
323.235	182.768
326.128	158.034
329.021	148.17
331.913	81.7549
334.806	84.3442
337.699	90.2798
340.591	68.2671
343.484	7.66211
346.377	64.2266
349.27	57.6211
352.162	50.3359
355.055	104.506
357.948	87.4517
360.84	58.8042
363.733	50.645
366.626	91.3608
369.519	59.6621
372.411	46.9517
375.304	30.0742
378.197	49.373
381.089	42.6123
383.982	26.874
386.875	1.92236
389.767	15.5391
392.66	6.82178
395.553	19.5732
398.446	51.4893
401.338	4.50146
404.231	15.8042
407.124	37.647
410.016	19.602
412.909	47.6934
415.802	32.6182
418.695	43.8506
421.587	20.0342
424.48	53.9292
427.373	80.8237
430.265	15.6909
433.158	37.7334
436.051	70.6567
438.943	69.0952
441.836	101.308
444.729	83.2368
447.622	17.1968
450.514	48.2978
453.407	81.3545
456.3	123.779
459.192	45.9448
462.085	59.7266
464.978	38.4497
467.87	15.5747
470.763	65.125
473.656	55.7393
476.548	9.76025
479.441	24.3379
482.334	89.9746
485.227	163.913
488.119	90.5864
491.012	68.0825
493.905	79.7378
496.797	41.1621
499.69	83.7334
502.583	24.0684
505.476	39.0732
508.368	64.5806
511.261	89.7329
514.154	84.6235
517.046	119.86
519.939	153.434
522.832	95.6816
525.724	44.7368
528.617	60.9502
531.51	76.5073
534.403	92.8247
537.295	48.2549
540.188	84.7769
543.081	147.847
545.973	113.379
548.866	77.6743
551.759	53.4492
554.651	54.3227
557.544	36.6431
560.437	84.5225
563.33	93.6436
566.222	8.74707
569.115	13.9751
572.008	49.9116
574.9	8.72363
577.793	16.8462
580.686	67.5005
583.578	18.8042
586.471	9.67773
589.364	6.90576
592.256	2.0542
595.149	7.24854
598.042	97.5952
600.935	25.9507
603.827	65.1226
606.72	59.5469
609.613	57.1118
612.505	108.265
615.398	0.640625
618.291	34.9243
621.183	15.2534
624.076	8.41895
626.969	34.7915
629.862	16.2192
632.754	66.3769
635.647	26.002
638.54	46.542
641.432	100.626
644.325	31.6948
647.218	26.7441
650.111	38.5474
653.003	83.1797
655.896	14.1553
658.789	19.9883
661.681	17.0635
664.574	31.6616
667.467	61.9121
670.36	112.208
673.252	32.5991
676.145	75.1831
679.038	132.147
681.93	115.194
684.823	122.816
687.716	171.792
690.608	174.373
693.501	249.668
696.394	222.301
699.287	270.983
702.179	240.428
705.072	165.557
707.965	116.403
710.857	63.6377
713.75	20.8965
716.643	104.06
719.535	25.7236
722.428	7.99316
725.321	21.9517
728.213	92.1118
731.106	37.0933
733.999	30.9697
736.892	109.566
739.784	108.308
742.677	368.338
745.57	578.798
748.462	944.759
751.355	1356.63
754.248	1349.48
757.14	765.121
760.033	341.81
762.926	111.904
765.819	38.8916
768.711	9.73047
771.604	0.841309
774.497	19.3706
777.389	13.3589
780.282	128.02
783.175	88.0171
786.067	78.9312
788.96	134.319
791.853	65.3032
794.746	36.813
797.638	98.1631
800.531	84.1675
803.424	186.606
806.316	258.808
809.209	152.495
812.102	272.049
814.995	238.677
817.887	216.5
820.78	262.106
823.673	319.337
826.565	335.767
829.458	307.955
832.351	243.082
835.244	159.669
838.136	169.984
841.029	266.33
843.922	295.566
846.814	379.952
849.707	453.107
852.6	804.121
855.492	1379.07
858.385	2670.2
861.278	4566.69
864.17	6489.37
867.063	8308.39
869.956	6126.6
872.849	2046.06
875.741	580.913
878.634	250.494
881.527	126.95
884.419	162.08
887.312	52.9077
890.205	66.9038
893.097	58.6885
895.99	2.27148
898.883	28.417
901.776	39.2764
904.668	12.8535
907.561	79.2432
910.454	97.7412
913.346	54.3379
916.239	59.2769
919.132	17.3027
922.024	31.6562
924.917	29.0381
927.81	41.5527
930.703	26.1274
933.595	2.53369
936.488	45.9473
939.381	38.8384
942.273	57.458
945.166	67.9546
948.059	74.4941
950.952	5.41064
953.844	3.22852
956.737	123.524
959.63	95.5772
962.522	118.597
965.415	71.8809
968.308	137.062
971.2	6.32178
974.093	26.8511
976.986	26.7681
979.879	36.6641
982.771	37.7197
985.664	27.6567
988.557	23.4106
991.449	78.6128
994.342	37.1572
997.235	43.7446
1000.13	29.1167
1003.02	49.2163
1005.91	4.69141
1008.81	21.0864
1011.7	71.5
1014.59	67.8354
1017.48	81.7144
1020.38	99.1597
1023.27	71.8633
1026.16	43.4522
1029.05	62.3286
1031.95	82.9858
1034.84	17.1113
1037.73	19.0288
1040.62	5.45459
1043.52	3.70166
1046.41	21.7314
1049.3	49.3643
1052.2	4.70752
1055.09	50.9243
1057.98	64.77
1060.87	153
1063.77	232.155
1066.66	509.4
1069.55	766.22
1072.44	1088.54
1075.34	674.878
1078.23	358.016
1081.12	640.57
1084.02	1139.05
1086.91	1523.57
1089.8	1540.02
1092.69	532.305
1095.59	145.048
1098.48	76.8589
1101.37	70.8374
1104.27	125.08
1107.16	21.7812
1110.05	57.0884
1112.94	111.668
1115.84	84.2612
1118.73	114.165
1121.62	78.3433
1124.51	14.0195
1127.41	63.3921
1130.3	32.2568
1133.19	2.58691
1136.08	38.1777
1138.98	20.7891
1141.87	27.8218
1144.76	14.3999
1147.65	63.1968
1150.55	80.6348
1153.44	45.3462
1156.33	53.0855
1159.23	6.53369
1162.12	24.0649
1165.01	42.1352
1167.9	7.85254
1170.8	10.6191
1173.69	73.9043
1176.58	67.0908
1179.47	90.9546
1182.37	53.624
1185.26	96.4087
1188.15	154.337
1191.05	102.625
1193.94	65.3603
1196.83	84.9546
1199.72	126.694
1202.62	38.811
1205.51	15.6343
1208.4	4.61475
1211.3	15.853
1214.19	52.8867
1217.08	65.8877
1219.97	100.498
1222.87	140.868
1225.76	90.5425
1228.65	94.6689
1231.54	52.5005
1234.44	108.406
1237.33	46.0938
1240.22	77.3018
1243.11	77.4087
1246.01	16.603
1248.9	29.4336
1251.79	67.728
1254.68	100.866
1257.58	19.208
