Measurement: Raman, 780 nm, unoriented, Raman Data Processed
Mineral: Zemannite
Rruff sample: R050273
Ideal chemistry: Mg_0.5_ZnFe^3+^(Te^4+^O_3_)_3_4.5H_2_O
Locality: Mina Bambollita, Moctezuma, Sonora, Mexico
Source: Marcus Origlieri
Description: Dark reddish-brown hexagonal prisms
Raman shift (cm-1)	intensity
165.472	0
168.365	0.085125
171.258	0.12653
174.151	0.328182
177.043	1.1914
179.936	1.79984
182.829	2.67576
185.721	3.76166
188.614	7.2276
191.507	10.141
194.399	13.1147
197.292	17.1261
200.185	21.6895
203.078	27.1158
205.97	30.961
208.863	35.2184
211.756	37.1408
214.648	39.5983
217.541	39.4195
220.434	38.8626
223.326	36.9938
226.219	36.0035
229.112	33.732
232.005	34.3108
234.897	34.0604
237.79	34.9993
240.683	34.0393
243.575	34.5112
246.468	34.7165
249.361	32.7957
252.253	31.1935
255.146	27.4552
258.039	22.4016
260.932	17.7516
263.824	14.7585
266.717	11.4978
269.61	9.99057
272.502	8.2876
275.395	7.38796
278.288	4.88184
281.18	4.85694
284.073	3.02475
286.966	1.7529
289.859	0.718597
292.751	0.292698
295.644	0.012051
298.537	0.853523
301.429	1.39908
304.322	1.08239
307.215	1.10996
310.108	0.092876
313	0.427223
315.893	0.744545
318.786	1.47782
321.678	3.2705
324.571	5.34846
327.464	6.09109
330.356	8.50723
333.249	10.2377
336.142	10.7874
339.034	13.03
341.927	13.0212
344.82	11.6772
347.712	11.9592
350.605	10.6259
353.498	10.5748
356.391	8.84393
359.283	8.10981
362.176	8.28542
365.069	8.43749
367.961	8.83372
370.854	10.0711
373.747	10.9639
376.639	11.1202
379.532	12.3182
382.425	12.4696
385.318	13.657
388.21	13.4044
391.103	13.7508
393.996	12.8839
396.888	11.3947
399.781	8.9174
402.674	7.24889
405.567	4.19613
408.459	2.3089
411.352	0.893078
414.245	1.43632
417.137	0.555847
420.03	1.64695
422.923	3.14499
425.815	5.19971
428.708	7.46304
431.601	11.1357
434.493	15.5813
437.386	20.9932
440.279	28.3021
443.172	36.59
446.064	46.4906
448.957	56.4855
451.85	66.8132
454.742	75.7856
457.635	82.4604
460.528	86.6644
463.421	86.3952
466.313	81.8805
469.206	71.8279
472.099	60.6811
474.991	49.6111
477.884	38.714
480.777	28.7018
483.669	21.1449
486.562	15.6079
489.455	10.1328
492.348	7.63034
495.24	5.48943
498.133	3.0907
501.026	1.72491
503.918	0.746401
506.811	0.500626
509.704	0.752775
512.596	0.493845
515.489	0.503462
518.382	0.130255
521.274	0.2654
524.167	0.052734
527.06	0.490349
529.953	0.790911
532.845	1.16408
535.738	1.45102
538.631	1.40243
541.523	1.23173
544.416	1.46857
547.309	1.4037
550.202	1.47986
553.094	1.34218
555.987	1.56639
558.88	1.32546
561.772	1.29848
564.665	0.977825
567.558	0.912392
570.45	0.495693
573.343	0.166254
576.236	0.160711
579.129	0.016649
582.021	0.465311
584.914	0.504997
587.807	0.814133
590.699	0.343809
593.592	0.357309
596.485	0.386824
599.377	0.442715
602.27	1.4801
605.163	2.72864
608.056	4.00184
610.948	5.12963
613.841	7.45568
616.734	9.25995
619.626	11.7982
622.519	13.4045
625.412	16.9716
628.304	18.4308
631.197	20.5187
634.09	22.4566
636.982	24.3582
639.875	24.3093
642.768	24.7689
645.661	23.0387
648.553	21.8885
651.446	19.2903
654.339	18.0784
657.231	13.9917
660.124	11.8932
663.017	8.09172
665.909	6.53162
668.802	4.63995
671.695	2.83733
674.588	1.37607
677.48	2.03499
680.373	2.14563
683.266	3.82288
686.158	6.41722
689.051	7.31664
691.944	11.7113
694.837	15.6857
697.729	19.3643
700.622	25.6199
703.515	28.1307
706.407	32.8028
709.3	37.5782
712.193	43.9321
715.085	50.5087
717.978	57.7642
720.871	65.8037
723.764	75.0136
726.656	84.1245
729.549	94.27
732.442	99.6647
735.334	103.736
738.227	104.039
741.12	100.373
744.012	91.2062
746.905	82.6382
749.798	68.527
752.691	54.4226
755.583	41.3932
758.476	30.3082
761.369	22.1105
764.261	15.4715
767.154	11.2536
770.047	7.76401
772.939	5.4132
775.832	2.6502
778.725	1.78077
781.617	0.453678
784.51	0.452131
787.403	1.03641
790.296	0.705509
793.188	1.12147
796.081	0.736879
798.974	0.308969
801.866	0.305928
804.759	0.101952
807.652	0.411634
810.544	0.160562
813.437	0.894978
816.33	1.79744
819.223	1.9565
822.115	2.42641
825.008	2.5787
827.901	2.7437
830.793	3.08978
833.686	3.75273
836.579	3.47192
839.471	3.89701
842.364	3.808
845.257	4.18649
848.15	3.86563
851.042	3.78003
853.935	3.59872
856.828	3.40192
859.72	2.73531
862.613	2.85299
865.506	2.76396
868.399	2.72386
871.291	2.57967
874.184	2.04763
877.077	2.43374
879.969	2.03906
882.862	2.11928
885.755	2.15233
888.647	1.98353
891.54	1.78437
894.433	1.70985
897.326	1.41283
900.218	1.50545
903.111	1.70262
906.004	1.1591
908.896	1.25973
911.789	0.928127
914.682	0.827979
917.574	0.927789
920.467	0.995476
923.36	0.497845
926.252	0.434634
929.145	0.886066
932.038	0.474936
934.931	0.62726
937.823	0.370328
940.716	0.546744
943.609	0.670794
946.501	0.299516
949.394	0.371642
952.287	0.44666
955.179	0.275089
958.072	0.10853
960.965	0.217466
963.857	0.151396
966.75	0.053297
969.643	0.00614
972.536	0.050019
975.428	0.186356
978.321	0.008967
981.214	0.152996
984.106	0.172182
986.999	0.021401
989.892	0.315323
992.784	0.122255
995.677	0.028076
998.57	0.143764
1001.46	0.012535
1004.36	0.055354
1007.25	0.232059
1010.14	0.091625
1013.03	0.025156
1015.93	0.201988
1018.82	0.340451
1021.71	0.039286
1024.6	0.440109
1027.5	0.312787
1030.39	0.039768
1033.28	0.331186
1036.17	0.07917
1039.07	0.12642
1041.96	0.049257
1044.85	0.165217
1047.75	0.014315
1050.64	0.272153
1053.53	0.21176
1056.42	0.457295
1059.32	0.487675
1062.21	0.467834
1065.1	0.077021
1067.99	0.188631
1070.89	0.542466
1073.78	0.361261
1076.67	0.064862
1079.57	0.444532
1082.46	0.13813
1085.35	0.259625
1088.24	0.421388
1091.14	0.20198
1094.03	0.35275
1096.92	0.118265
1099.81	0.036007
1102.71	0.201778
1105.6	0.271519
1108.49	0.087439
1111.38	0.202157
1114.28	0.277534
1117.17	0.197537
1120.06	0.293338
1122.96	0.195343
1125.85	0.162007
1128.74	0.171981
1131.63	0.260958
1134.53	0.369899
1137.42	0.17727
1140.31	0.158518
1143.2	0.261682
1146.1	0.064848
1148.99	0.432363
1151.88	0.081905
1154.78	0.112756
1157.67	0.550284
1160.56	0.449902
1163.45	0.114583
1166.35	0.515727
1169.24	0.172684
1172.13	0.515033
1175.03	0.078268
1177.92	0.321284
1180.81	0.239233
1183.7	0.490768
1186.6	0.267826
1189.49	0.266685
1192.38	0.1865
1195.27	0.161111
1198.17	0.171197
1201.06	0.303698
1203.95	0.333379
1206.84	0.247441
1209.74	0.122701
1212.63	0.060392
1215.52	0.112304
1218.41	0.334361
1221.31	0.428158
1224.2	0.44381
1227.09	0.18296
1229.99	0.260301
1232.88	0.115613
1235.77	0.649061
1238.66	0.197944
1241.56	0.408794
1244.45	0.24299
1247.34	0.723309
1250.23	0.311712
1253.13	0.433754
1256.02	0.082386
1258.91	0.485245
1261.81	0.194109
1264.7	0.339525
1267.59	0.298638
1270.48	0.443868
1273.38	0.36129
1276.27	0.106258
1279.16	0.380635
1282.06	0.196835
1284.95	0.005888
