Measurement: Raman, 514 nm, unoriented, Raman Data Processed
Mineral: Zemannite
Rruff sample: R050273
Ideal chemistry: Mg_0.5_ZnFe^3+^(Te^4+^O_3_)_3_4.5H_2_O
Locality: Mina Bambollita, Moctezuma, Sonora, Mexico
Source: Marcus Origlieri
Description: Dark reddish-brown hexagonal prisms
Raman shift (cm-1)	intensity
81.304	0
85.496	133.665
89.685	1329.38
93.873	3293.43
98.058	5040.65
102.242	5626.87
106.423	4596.72
110.603	3578.78
114.78	3239.88
118.956	3217.24
123.129	3595.7
127.3	4254.27
131.469	4830.18
135.636	4804.14
139.801	3991.28
143.964	3232.19
148.125	2507.86
152.284	2051.91
156.441	1572.73
160.596	1512.62
164.749	1325.8
168.9	1254.86
173.049	1335.1
177.195	1390.88
181.34	1351.55
185.483	1411.83
189.624	1621.89
193.762	1810.41
197.899	2035.14
202.034	2281.47
206.166	2562.69
210.297	2513.03
214.425	2427.36
218.552	2414.44
222.676	2194.19
226.799	2037.04
230.919	1741.4
235.038	1470.23
239.154	1229.91
243.269	957.69
247.381	776.873
251.492	599.754
255.6	318.716
259.707	176.205
263.811	36.06
267.914	29.993
272.014	200.914
276.113	284.559
280.209	140.472
284.304	76.831
288.396	204.821
292.487	174.696
296.575	134.611
300.662	98.817
304.746	132.516
308.829	108.77
312.909	25.502
316.988	102.503
321.065	235.352
325.139	379.994
329.212	540.77
333.283	733.575
337.351	931.927
341.418	1071.13
345.483	1346.84
349.546	1534.36
353.606	1795.63
357.665	2031.72
361.722	2438.95
365.777	2801.99
369.83	2953.15
373.881	2804.4
377.93	2687.74
381.977	2661.11
386.023	2575.74
390.066	2576.88
394.107	2458.19
398.146	2491.57
402.184	2360.12
406.219	2298.18
410.252	2383.02
414.284	2531.29
418.313	2742.67
422.341	3009.99
426.367	3368.33
430.39	3913.21
434.412	4475.48
438.432	5195.33
442.45	6152.76
446.466	7305.29
450.48	8532.94
454.492	9645.93
458.502	10272.8
462.51	10579.1
466.517	10125.6
470.521	8854.58
474.523	7257.75
478.524	5970.54
482.523	4867.03
486.519	3815.56
490.514	3005.09
494.507	2418.62
498.498	1951.16
502.487	1437.71
506.474	1149.29
510.459	858.916
514.442	654.607
518.424	612.385
522.403	407.264
526.381	220.252
530.356	100.351
534.33	102.559
538.302	69.869
542.272	16.752
546.24	27.372
550.206	94.084
554.17	63.078
558.132	41.3
562.093	84.625
566.051	45.018
570.008	13.675
573.963	24.532
577.915	146.625
581.866	146.951
585.815	300.483
589.763	487.195
593.708	769.27
597.651	933.054
601.593	1200.47
605.532	1626.45
609.47	2119.95
613.406	2472.07
617.34	2956.8
621.272	3507.11
625.202	4080.99
629.131	4870.39
633.057	5559.2
636.982	6010.27
640.905	6154.51
644.825	6508.91
648.744	6513.46
652.662	6208.15
656.577	5877.98
660.49	5351.94
664.402	5053.06
668.312	4769.3
672.219	4371.69
676.125	4012.21
680.03	3921.85
683.932	4098.62
687.832	4383.51
691.731	4502.52
695.628	4613.95
699.522	4964.21
703.415	5512.36
707.307	6025.95
711.196	6694.75
715.083	7256.9
718.969	7936.97
722.853	9019.18
726.735	10260.8
730.615	10987.2
734.493	11283.2
738.37	11299.6
742.244	10761
746.117	9959.43
749.988	8718.37
753.857	7333.58
757.724	6089.86
761.59	5046.63
765.453	4270.27
769.315	3661.61
773.175	2990.99
777.033	2587.34
780.889	2154.14
784.744	1813.81
788.596	1656.55
792.447	1458.39
796.296	1271.6
800.143	1058.8
803.989	953.19
807.832	891.972
811.674	747.836
815.514	659.915
819.352	527.678
823.189	430.162
827.023	377.81
830.856	386.997
834.687	254.955
838.516	180.989
842.343	93.154
846.169	5.324
849.992	39.118
853.814	39.95
857.634	22.767
861.453	6.093
865.269	74.553
869.084	50.798
872.897	22.984
876.708	71.677
880.517	37.717
884.325	56.288
888.13	66.589
891.934	13.172
895.737	56.004
899.537	0.959
903.336	22.357
907.132	19.64
910.928	45.666
914.721	14.72
918.512	47.55
922.302	15.23
926.09	74.495
929.876	22.404
933.66	63.041
937.443	57.611
941.224	58.693
945.003	87.43
948.78	116.016
952.556	59.175
956.33	32.996
960.102	53.498
963.872	58.822
967.64	61.068
971.407	88.971
975.172	51.608
978.935	40.825
982.697	82.783
986.456	64.441
990.214	93.81
993.971	79.028
997.725	156.507
1001.48	145.986
1005.23	150.133
1008.98	85.072
1012.73	78.878
1016.47	154.673
1020.22	196.712
1023.96	179.896
1027.7	138.583
1031.44	106.408
1035.17	179.085
1038.91	133.445
1042.64	123.538
1046.37	128.763
1050.1	168.442
1053.83	100.055
1057.56	40.316
1061.28	63.45
1065.01	114.281
1068.73	159.776
1072.45	186.636
1076.16	106.003
1079.88	123.199
1083.6	59.66
1087.31	78.716
1091.02	132.426
1094.73	147.234
1098.44	143.318
1102.14	196.417
1105.85	145.103
1109.55	70.661
1113.25	18.323
1116.95	30.923
1120.65	91.835
1124.34	111.89
1128.04	128.052
1131.73	95.736
1135.42	67.854
1139.11	28.822
1142.79	68.332
1146.48	81.146
1150.16	71.855
1153.84	166.229
1157.52	164.172
1161.2	85.412
1164.88	57.346
1168.56	37.037
1172.23	25.885
1175.9	90.945
1179.57	81.596
1183.24	109.774
1186.9	116.284
1190.57	64.494
1194.23	55.277
1197.89	21.283
1201.55	22.618
1205.21	72.91
1208.87	55.556
1212.52	186.715
1216.18	154.901
1219.83	95.742
1223.48	74.731
1227.13	43.957
1230.77	17.45
1234.42	122.064
1238.06	83.618
1241.7	157.866
1245.34	123.964
1248.98	129.788
1252.62	130.879
1256.25	112.737
1259.88	22.312
1263.51	65.006
1267.14	86.758
1270.77	115.979
1274.4	173.111
1278.02	149.157
1281.65	109.041
1285.27	52.922
1288.89	37.77
1292.51	38.434
1296.12	49.206
1299.74	42.724
1303.35	55.781
1306.96	13.752
1310.57	36.23
1314.18	125.692
1317.79	24.128
1321.39	44.539
1324.99	14.673
1328.59	3.073
1332.19	10.1
1335.79	6.705
1339.39	78.35
1342.98	81.568
1346.58	160.803
1350.17	111.156
1353.76	88.44
1357.35	46.924
1360.93	68.949
1364.52	27.9
1368.1	75.827
1371.68	86.521
1375.26	98.162
1378.84	128.724
1382.42	225.267
1385.99	138.347
1389.57	161.73
1393.14	127.164
1396.71	100.839
1400.28	68.089
1403.85	28.033
1407.41	46.863
1410.98	122.941
1414.54	103.457
1418.1	168.084
1421.66	168.77
1425.21	160.475
1428.77	104.881
1432.33	89.679
1435.88	50.368
1439.43	8.595
1442.98	73.646
1446.53	49.575
1450.07	63.672
1453.62	102.1
1457.16	146.904
1460.7	169.688
1464.24	255.544
1467.78	175.639
1471.32	147.119
1474.85	121.779
1478.38	29.571
1481.91	66.118
1485.44	32.26
1488.97	99.872
1492.5	87.514
1496.03	81.312
1499.55	35.952
1503.07	145.248
1506.59	144.196
1510.11	183.767
1513.63	130.922
1517.14	57.039
1520.66	68.337
1524.17	0
