Measurement: Raman, 532 nm, unoriented, Raman Data Processed
Mineral: Zemannite
Rruff sample: R050273
Ideal chemistry: Mg_0.5_ZnFe^3+^(Te^4+^O_3_)_3_4.5H_2_O
Locality: Mina Bambollita, Moctezuma, Sonora, Mexico
Source: Marcus Origlieri
Description: Dark reddish-brown hexagonal prisms
Raman shift (cm-1)	intensity
164.377	0
167.269	0.437325
170.162	0.065544
173.055	0.477505
175.947	0.567551
178.84	1.10942
181.733	0.046928
184.626	1.01915
187.518	1.49101
190.411	2.46733
193.304	3.79475
196.196	5.35856
199.089	5.69022
201.982	7.89459
204.875	8.96731
207.767	11.845
210.66	13.7584
213.553	15.1815
216.445	15.7559
219.338	16.4251
222.231	17.0372
225.123	16.5093
228.016	17.1794
230.909	17.2779
233.802	17.6468
236.694	19.6307
239.587	19.7578
242.48	19.5081
245.372	19.8432
248.265	19.7779
251.158	19.5876
254.05	17.6972
256.943	15.382
259.836	11.9898
262.728	8.78262
265.621	8.18723
268.514	6.26093
271.407	5.85877
274.299	4.87648
277.192	4.16571
280.085	3.07135
282.977	2.64365
285.87	2.05468
288.763	1.21002
291.656	0.850388
294.548	0.194967
297.441	0.085026
300.334	0.44198
303.226	0.029425
306.119	0.787996
309.012	0.23547
311.904	0.167749
314.797	0.677057
317.69	0.641562
320.582	0.944336
323.475	2.5218
326.368	2.94619
329.261	4.98448
332.153	5.50671
335.046	5.89199
337.939	6.89974
340.831	7.54729
343.724	7.59912
346.617	7.39097
349.509	6.62299
352.402	6.64714
355.295	5.97769
358.188	5.11205
361.08	5.21739
363.973	5.59362
366.866	6.59437
369.758	7.06247
372.651	7.32937
375.544	7.89441
378.436	7.952
381.329	8.34411
384.222	8.1127
387.115	7.65633
390.007	7.00319
392.9	6.85049
395.793	5.52801
398.685	4.11247
401.578	2.67461
404.471	1.75928
407.363	0.764503
410.256	0.649982
413.149	0.636215
416.041	0.071983
418.934	0.888111
421.827	2.28344
424.72	2.54505
427.612	3.88724
430.505	6.16568
433.398	8.91029
436.29	12.4216
439.183	15.8819
442.076	20.4673
444.969	25.9713
447.861	32.8743
450.754	40.6291
453.647	49.3182
456.539	59.4361
459.432	66.1703
462.325	71.4959
465.217	73.3728
468.11	71.4344
471.003	65.9682
473.896	55.8451
476.788	47.5305
479.681	37.6161
482.574	29.7217
485.466	21.5817
488.359	17.3453
491.252	12.6222
494.144	8.66723
497.037	7.02549
499.93	4.17663
502.822	3.32998
505.715	2.13002
508.608	0.886269
511.501	0.682064
514.393	0.392689
517.286	0.141783
520.179	0.438438
523.071	0.217093
525.964	0.342648
528.857	0.557459
531.75	0.506802
534.642	0.885294
537.535	0.825397
540.428	1.0029
543.32	1.17536
546.213	0.994612
549.106	1.36656
551.998	0.931448
554.891	0.715796
557.784	0.715178
560.677	0.666485
563.569	0.149233
566.462	0.532366
569.355	0.39064
572.247	0.28417
575.14	0.002319
578.033	0.148743
580.925	0.118824
583.818	0.268476
586.711	0.659981
589.604	0.726851
592.496	0.82991
595.389	0.018673
598.282	0.096062
601.174	1.01171
604.067	1.31896
606.96	2.47226
609.852	3.62872
612.745	3.87568
615.638	5.56921
618.53	7.29398
621.423	7.98245
624.316	9.85228
627.209	11.8417
630.101	13.2219
632.994	14.7728
635.887	16.2125
638.779	17.3061
641.672	17.5335
644.565	17.1769
647.457	15.3102
650.35	13.4569
653.243	12.5218
656.136	10.5785
659.028	8.35397
661.921	7.52089
664.814	5.48303
667.706	3.90894
670.599	2.24446
673.492	1.35923
676.385	2.04572
679.277	1.19961
682.17	2.5345
685.063	3.86117
687.955	5.77572
690.848	7.20304
693.741	9.94328
696.633	13.4083
699.526	15.5086
702.419	18.7309
705.312	21.8555
708.204	25.6454
711.097	28.7327
713.99	33.608
716.882	37.2628
719.775	43.7232
722.668	50.7352
725.56	58.9307
728.453	65.9653
731.346	72.2749
734.239	75.5305
737.131	78.2836
740.024	75.1981
742.917	72.6273
745.809	64.7138
748.702	55.3545
751.595	45.65
754.487	34.5055
757.38	27.2021
760.273	19.903
763.165	15.3708
766.058	11.0496
768.951	8.26077
771.844	6.51961
774.736	5.00433
777.629	2.18256
780.522	1.09501
783.414	1.27414
786.307	0.110836
789.2	0.718782
792.092	0.261105
794.985	0.59033
797.878	1.32508
800.77	0.431444
803.663	0.371702
806.556	0.150959
809.449	0.100615
812.341	0.664707
815.234	0.544294
818.127	1.06005
821.019	1.46174
823.912	1.7819
826.805	1.86154
829.697	2.25913
832.59	1.94462
835.483	2.33724
838.376	2.66136
841.268	3.1481
844.161	3.16896
847.054	3.31289
849.946	3.15494
852.839	3.26138
855.732	3.01309
858.625	2.5555
861.517	2.85555
864.41	2.39222
867.303	2.15806
870.195	1.92247
873.088	2.21646
875.981	2.57228
878.873	1.85152
881.766	1.61111
884.659	2.0004
887.552	1.71207
890.444	2.23136
893.337	1.22291
896.23	1.4453
899.122	1.54066
902.015	1.22394
904.908	1.45985
907.8	1.17431
910.693	1.33031
913.586	1.08861
916.479	1.21298
919.371	0.603041
922.264	1.17403
925.157	0.933344
928.049	0.979996
930.942	1.0075
933.835	0.544819
936.727	0.539513
939.62	0.512833
942.513	0.922661
945.405	0.264196
948.298	0.390692
951.191	0.044971
954.084	0.692583
956.976	0.506071
959.869	0.901524
962.762	0.033442
965.654	0.592846
968.547	0.750811
971.44	0.021452
974.332	0.270676
977.225	0.23633
980.118	0.543043
983.011	0.187643
985.903	0.172752
988.796	0.118391
991.689	0.46014
994.581	0.423195
997.474	0.465784
1000.37	0.570333
1003.26	0.28862
1006.15	0.414137
1009.04	0.387707
1011.94	0.531105
1014.83	0.63265
1017.72	0.936167
1020.62	0.239738
1023.51	0.329041
1026.4	0.030424
1029.29	0.072464
1032.19	0.225254
1035.08	0.281696
1037.97	0.203995
1040.87	0.68396
1043.76	0.263021
1046.65	0.125109
1049.54	0.614313
1052.43	0.172243
1055.33	0.256233
1058.22	0.121489
1061.11	0.668888
1064.01	0.763922
1066.9	0.413898
1069.79	0.516609
1072.68	0.59502
1075.58	0.046019
1078.47	0.814556
1081.36	0.782799
1084.26	0.488688
1087.15	0.702286
1090.04	0.543146
1092.93	0.140703
1095.83	0.572542
1098.72	0.588854
1101.61	0.803343
1104.5	0.474085
1107.4	0.302525
1110.29	1.04638
1113.18	0.756329
1116.08	0.020815
1118.97	0.405088
1121.86	0.47893
1124.75	0.430378
1127.65	0.831692
1130.54	0.88027
1133.43	0.606556
1136.32	0.434748
1139.22	0.532351
1142.11	0.642265
1145	0.85054
1147.89	0.109829
1150.79	0.686348
1153.68	0.604271
1156.57	0.351128
1159.46	0.114071
1162.36	0.19157
1165.25	0.58769
1168.14	0.23148
1171.04	0.725487
1173.93	0.284351
1176.82	0.316599
1179.71	0.241533
1182.61	0.147371
1185.5	0.284275
1188.39	0.341999
1191.29	0.797989
1194.18	0.618397
1197.07	0.534294
1199.96	0.018568
1202.86	0.481319
1205.75	0.409616
1208.64	0.292215
1211.53	0.575047
1214.43	0.586544
1217.32	0.464291
1220.21	0.505465
1223.11	0.370245
1226	0.369764
1228.89	0.312042
1231.78	0.500479
1234.67	0.470654
1237.57	0.561905
1240.46	0.246311
1243.35	0.042536
1246.25	0.279861
1249.14	0.354143
1252.03	0.247692
1254.92	0.302917
1257.82	0.075325
1260.71	0.306257
1263.6	0.500233
1266.49	0.297237
1269.39	0.172409
1272.28	0.070597
1275.17	0.649174
1278.07	0.562155
1280.96	0.318521
1283.85	0.144909
1286.74	0.231174
1289.64	0.504612
1292.53	0.179152
