Measurement: Raman, 785 nm, unoriented, Raman Data Processed
Mineral: Zeophyllite
Rruff sample: R060150
Ideal chemistry: Ca_13_Si_10_O_28_(OH)_2_F_8_6H_2_O
Locality: Radzein, near Teplitz, Bohemia, Czech Republic
Source: University of Arizona Mineral Museum
Description: Spherical aggregates of white platy crystals
Measured chemistry: (Ca_12.67_Al_0.33_)_Σ=13_(Si_9.67_Al_0.33_)_10_O_28_F_10_·6H_2_O
Raman shift (cm-1)	intensity
210.211	0
213.104	125.836
215.996	65.4258
218.889	189.965
221.782	578.934
224.674	673.938
227.567	731.688
230.46	893.812
233.353	1302.34
236.245	1700.61
239.138	2269.1
242.031	1991.72
244.923	1737.1
247.816	1276.98
250.709	1312.88
253.601	1280.78
256.494	1194.2
259.387	1127.94
262.28	1192.47
265.172	1431.38
268.065	1424.32
270.958	1342.46
273.85	1600.38
276.743	1849.7
279.636	2290.98
282.529	2470.41
285.421	2308.73
288.314	2175.88
291.207	1685.05
294.099	911.109
296.992	692.023
299.885	650.289
302.777	924
305.67	750.539
308.563	820.375
311.455	791.102
314.348	613.664
317.241	456.898
320.134	318.297
323.026	597.457
325.919	707.871
328.812	834.496
331.704	588.074
334.597	336.414
337.49	220.473
340.382	189.402
343.275	202.043
346.168	57.3242
349.061	211.648
351.953	139.848
354.846	424.824
357.739	699.922
360.631	1144.67
363.524	1090.47
366.417	1108.8
369.31	866.434
372.202	818.465
375.095	864.359
377.988	994.797
380.88	635.484
383.773	743.656
386.666	280.555
389.558	132.906
392.451	216.465
395.344	291.199
398.236	32.9102
401.129	15.8945
404.022	28.1641
406.915	39.0742
409.807	2.92578
412.7	0.015625
415.593	319.359
418.485	122.606
421.378	204.285
424.271	21.1953
427.163	17.7227
430.056	32.2031
432.949	147.379
435.842	259.207
438.734	660.418
441.627	703.391
444.52	1189.62
447.412	1338
450.305	1585.24
453.198	1774.84
456.091	1534.95
458.983	1038.5
461.876	894.66
464.769	1010.68
467.661	1500
470.554	1356.56
473.447	826.949
476.339	729.039
479.232	450.801
482.125	430.609
485.017	423.055
487.91	608.629
490.803	553.688
493.696	634.84
496.588	594.019
499.481	545.449
502.374	478.027
505.266	207.07
508.159	326.422
511.052	129.969
513.944	191.863
516.837	350.469
519.73	241.012
522.623	183.25
525.515	370.894
528.408	433.926
531.301	951.5
534.193	1064.26
537.086	1001.89
539.979	647.762
542.871	180.793
545.764	22.3398
548.657	58.293
551.55	30.25
554.442	103.078
557.335	105.668
560.228	187.258
563.12	45.5
566.013	107.648
568.906	11.082
571.798	86.5469
574.691	61.0312
577.584	20.6016
580.477	144.609
583.369	111.312
586.262	137.953
589.155	213.109
592.047	264.688
594.94	301.148
597.833	434.731
600.726	266.152
603.618	403.75
606.511	324.551
609.404	45.5234
612.296	104.773
615.189	240.289
618.082	278.695
620.974	572.664
623.867	785.019
626.76	921.922
629.653	901.094
632.545	815.332
635.438	537.156
638.331	568.375
641.223	711.922
644.116	942.574
647.009	1723.16
649.901	2829.84
652.794	4309.38
655.687	6617.84
658.58	9136.48
661.472	11365.5
664.365	10373.4
667.258	7312.35
670.15	4405.5
673.043	2873.67
675.936	2025.68
678.828	1413.66
681.721	950.332
684.614	837.394
687.506	547.852
690.399	556.273
693.292	370.863
696.185	364.371
699.077	430.164
701.97	344.578
704.863	298.602
707.755	239.504
710.648	231.289
713.541	97.6523
716.433	106.938
719.326	58.6328
722.219	88.9258
725.112	116.211
728.004	80.7617
730.897	60.082
733.79	93.9805
736.682	22.1484
739.575	14.3438
742.468	76.9492
745.361	5.20312
748.253	93.0508
751.146	31.4883
754.039	75.6523
756.931	110.625
759.824	244.285
762.717	109.453
765.609	185.621
768.502	180.609
771.395	110.582
774.288	168.481
777.18	84.2891
780.073	147.723
782.966	29.668
785.858	145.133
788.751	224.574
791.644	176.316
794.536	134.356
797.429	158.074
800.322	7.26953
803.215	77.3867
806.107	145.418
809	255.527
811.893	215.184
814.785	167.262
817.678	294.363
820.571	153.269
823.463	25.0977
826.356	149.195
829.249	135.559
832.141	133.434
835.034	76.3203
837.927	45.5781
840.82	57.4023
843.712	115.379
846.605	76.2656
849.498	202.93
852.39	241.152
855.283	232.914
858.176	167.547
861.068	181.812
863.961	133.633
866.854	28.793
869.747	201.199
872.639	42.1094
875.532	43.8164
878.425	90.2383
881.317	196.035
884.21	74.0234
887.103	111.785
889.995	170.832
892.888	183.789
895.781	350.953
898.674	434.356
901.566	533.688
904.459	410.043
907.352	296.871
910.244	305.144
913.137	288.824
916.03	524.609
918.923	647.07
921.815	485.957
924.708	712.648
927.601	927.223
930.493	1200.59
933.386	1463.09
936.279	1460.1
939.171	1446.48
942.064	1202.81
944.957	896.617
947.85	582.016
950.742	268.199
953.635	255.738
956.528	95.3867
959.42	157.268
962.313	33.9648
965.206	34.1289
968.098	42.0234
970.991	2.48047
973.884	137.815
976.777	32.3301
979.669	190.309
982.562	83.9981
985.455	234.441
988.347	416.144
991.24	523.871
994.133	841.928
997.025	1048.96
999.918	1013.35
1002.81	1236.04
1005.7	1404.19
1008.6	1544.92
1011.49	2089.48
1014.38	2701.36
1017.27	2980.44
1020.17	3466.82
1023.06	3791.45
1025.95	4452.55
1028.85	5058.96
1031.74	4567
1034.63	3621.3
1037.52	2888.89
1040.42	2592.16
1043.31	2074.21
1046.2	1267.77
1049.09	747.926
1051.99	450.65
1054.88	306.705
1057.77	358.107
1060.66	230.598
1063.56	294.377
1066.45	188.967
1069.34	273.435
1072.24	172.049
1075.13	166.685
1078.02	169.201
1080.91	156.41
1083.81	251.746
1086.7	56.2676
1089.59	24.4414
1092.48	27.3086
1095.38	41.377
1098.27	51.4395
1101.16	5.16797
1104.06	247.734
1106.95	41.541
1109.84	15.7949
1112.73	56.123
1115.63	130.449
1118.52	148.611
1121.41	90.7715
1124.3	90.5098
1127.2	102.959
1130.09	31.2695
1132.98	112.014
1135.88	132.004
1138.77	169.777
1141.66	114.832
1144.55	209.488
1147.45	102.211
1150.34	183.309
1153.23	147.168
1156.12	48.0547
1159.02	1.25977
1161.91	55.4727
1164.8	15.3359
1167.69	114.227
1170.59	121.787
1173.48	1.8418
1176.37	165.394
1179.27	191.127
1182.16	17.6504
1185.05	105.693
1187.94	205.963
1190.84	37.5312
1193.73	84.7441
1196.62	144.361
1199.51	130.1
1202.41	203.856
1205.3	83.7012
1208.19	195.232
1211.09	51.4453
1213.98	213.635
1216.87	234.764
1219.76	223.158
1222.66	173.738
1225.55	76.6133
1228.44	14.1914
1231.33	37.5176
1234.23	63.6348
1237.12	96.3223
1240.01	50.9746
1242.9	0
