Measurement: Raman, 780 nm, unoriented, Raman Data Processed
Mineral: Zeophyllite
Rruff sample: R060150
Ideal chemistry: Ca_13_Si_10_O_28_(OH)_2_F_8_6H_2_O
Locality: Radzein, near Teplitz, Bohemia, Czech Republic
Source: University of Arizona Mineral Museum
Description: Spherical aggregates of white platy crystals
Measured chemistry: (Ca_12.67_Al_0.33_)_Σ=13_(Si_9.67_Al_0.33_)_10_O_28_F_10_·6H_2_O
Raman shift (cm-1)	intensity
95.4169	0
98.7917	9.80762
102.166	0.821045
105.541	2.91309
108.916	43.4133
112.291	74.4097
115.666	109.149
119.041	115.26
122.415	129.757
125.79	140.73
129.165	143.568
132.54	213.258
135.915	232.38
139.29	123.046
142.664	46.3547
146.039	14.2119
149.414	1.16064
152.789	11.3989
156.163	2.48438
159.538	10.5479
162.913	5.81787
166.288	9.2373
169.663	15.1438
173.038	28.6782
176.412	38.0896
179.787	51.749
183.162	59.1438
186.537	56.3633
189.912	62.6094
193.286	65.6272
196.661	71.8577
200.036	76.6084
203.411	64.6074
206.786	53.1118
210.161	19.4314
213.535	16.1963
216.91	9.03076
220.285	12.5252
223.66	7.72632
227.035	15.7661
230.409	22.9475
233.784	36.0415
237.159	59.1668
240.534	67.9453
243.909	59.9497
247.284	52.0508
250.658	38.5193
254.033	32.5986
257.408	17.2939
260.783	13.8162
264.158	21.3337
267.532	17.3274
270.907	20.9419
274.282	28.1824
277.657	40.7095
281.032	49.0188
284.406	51.4023
287.781	36.0864
291.156	34.2122
294.531	18.5566
297.906	12.1357
301.281	10.8198
304.655	9.63818
308.03	4.75049
311.405	3.40137
314.78	0.369629
318.155	0.121338
321.529	5.21143
324.904	8.91773
328.279	7.21265
331.654	3.59277
335.029	3.35107
338.404	8.94702
341.778	4.56738
345.153	0.066162
348.528	1.67847
351.903	6.5166
355.278	1.50391
358.652	10.9175
362.027	31.0359
365.402	38.4663
368.777	37.9941
372.152	25.2632
375.526	19.4631
378.901	22.3447
382.276	23.3132
385.651	14.5923
389.026	13.4085
392.401	14.199
395.775	4.77979
399.15	3.20874
402.525	9.39111
405.9	1.19824
409.275	1.33936
412.649	9.94336
416.024	5.58106
419.399	1.9458
422.774	9.96558
426.149	0.15625
429.524	4.36084
432.898	8.71582
436.273	9.90234
439.648	25.2285
443.023	29.8547
446.398	35.1174
449.772	47.3982
453.147	62.2883
456.522	62.7502
459.897	49.1277
463.272	38.6155
466.647	39.8513
470.021	49.3086
473.396	48.5129
476.771	35.8306
480.146	35.1804
483.521	31.845
486.895	27.9622
490.27	27.3689
493.645	27.5317
497.02	29.0935
500.395	23.8638
503.769	18.2095
507.144	9.42944
510.519	13.7585
513.894	11.645
517.269	10.2966
520.644	14.1604
524.018	8.87183
527.393	13.2058
530.768	18.0166
534.143	21.6252
537.518	28.4646
540.892	18.1373
544.267	5.36304
547.642	5.48377
551.017	0.170044
554.392	0.660034
557.766	1.04883
561.141	1.90625
564.516	0.642944
567.891	1.0083
571.266	0.446899
574.64	0.771362
578.015	0.601074
581.39	3.82153
584.765	3.35046
588.14	3.12122
591.515	3.82812
594.889	10.0973
598.264	14.4752
601.639	13.7344
605.014	13.7662
608.389	12.0336
611.764	7.4751
615.138	6.05481
618.513	8.93372
621.888	12.3097
625.263	15.3114
628.638	14.7869
632.012	22.4507
635.387	17.1039
638.762	13.9012
642.137	19.7252
645.512	39.9626
648.886	53.2825
652.261	82.2383
655.636	124.666
659.011	197.006
662.386	274.074
665.76	276.404
669.135	193.242
672.51	112.367
675.885	69.2716
679.26	48.2887
682.635	25.7455
686.009	23.6165
689.384	16.448
692.759	11.6951
696.134	8.78687
699.509	7.02173
702.884	3.72668
706.258	5.27942
709.633	3.24365
713.008	5.94385
716.383	5.82947
719.758	0.72876
723.132	1.52649
726.507	0.835449
729.882	1.94739
733.257	2.03601
736.632	8.90906
740.006	1.7948
743.381	2.12622
746.756	2.14465
750.131	2.03223
753.506	3.73889
756.88	2.90942
760.255	0.425049
763.63	0.202637
767.005	1.26257
770.38	3.60657
773.755	2.55103
777.129	3.82336
780.504	4.55518
783.879	1.00183
787.254	4.22754
790.629	1.70996
794.003	7.68262
797.378	6.21289
800.753	5.44263
804.128	4.57568
807.503	8.96936
810.878	4.34497
814.252	5.90186
817.627	5.79163
821.002	6.42261
824.377	4.46326
827.752	8.02014
831.126	7.72949
834.501	6.59436
837.876	4.57324
841.251	5.84814
844.626	3.40149
848	8.24133
851.375	7.47253
854.75	6.59216
858.125	4.08533
861.5	9.53699
864.875	6.79846
868.249	0.721558
871.624	6.83899
874.999	1.84814
878.374	3.36743
881.749	0.043701
885.123	0.385132
888.498	1.26587
891.873	2.61536
895.248	3.27393
898.623	3.21008
901.997	10.1331
905.372	9.151
908.747	6.72742
912.122	9.35242
915.497	7.94592
918.872	5.98999
922.246	13.3243
925.621	17.5194
928.996	19.8358
932.371	25.7341
935.746	36.0216
939.12	38.5281
942.495	31.9814
945.87	24.0327
949.245	10.5553
952.62	3.85681
955.995	2.70935
959.369	3.50818
962.744	0.737549
966.119	0.1875
969.494	1.79248
972.869	0.583252
976.243	0.87439
979.618	3.35168
982.993	3.59729
986.368	7.57776
989.743	10.5059
993.117	17.5898
996.492	22.2765
999.867	29.6343
1003.24	34.8449
1006.62	35.7769
1009.99	43.3595
1013.37	55.238
1016.74	65.8014
1020.12	77.4321
1023.49	88.3678
1026.87	95.6793
1030.24	109.2
1033.62	109.287
1036.99	90.265
1040.37	70.1956
1043.74	61.1191
1047.12	43.7222
1050.49	28.7966
1053.86	19.3538
1057.24	11.7757
1060.61	11.8218
1063.99	12.0697
1067.36	9.45233
1070.74	8.93957
1074.11	6.89002
1077.49	5.67548
1080.86	5.81543
1084.24	3.28601
1087.61	6.34705
1090.99	2.60754
1094.36	0.394836
1097.74	1.33923
1101.11	2.12726
1104.49	0.605957
1107.86	0.478455
1111.24	2.8855
1114.61	4.95624
1117.99	2.0293
1121.36	0.294556
1124.73	0.832458
1128.11	1.15698
1131.48	4.21295
1134.86	0.873657
1138.23	4.6665
1141.61	4.34961
1144.98	3.83478
1148.36	5.34992
1151.73	5.81854
1155.11	4.99029
1158.48	4.82672
1161.86	3.47931
1165.23	4.92975
1168.61	6.88983
1171.98	7.66022
1175.36	8.23254
1178.73	7.26123
1182.11	6.04681
1185.48	5.15015
1188.86	4.34503
1192.23	3.8222
1195.61	8.26251
1198.98	5.02502
1202.36	4.71637
1205.73	5.67743
1209.11	7.5636
1212.48	5.35156
1215.86	5.6698
1219.23	0.686096
1222.61	0.223999
1225.98	3.69519
1229.35	3.97211
1232.73	4.29004
1236.1	4.92456
1239.48	1.2392
1242.85	1.71606
1246.23	1.59576
1249.6	0.62146
1252.98	2.43219
1256.35	3.16931
1259.73	2.90155
1263.1	2.94507
1266.48	1.49231
1269.85	0.705444
1273.23	0.705383
1276.6	0.256348
1279.98	1.41657
1283.35	1.66711
