Measurement: Raman, 532 nm, unoriented, Raman Data Processed
Mineral: Zigrasite
Rruff sample: R120143
Ideal chemistry: MgZr(PO_4_)_2_4H_2_O
Locality: Dunton quarry, Newry, Oxford Co., Maine, USA
Source: James Zigras
Description: Single brownish yellow grain; holotype specimen
Raman shift (cm-1)	intensity
194.463	0
197.356	36.5688
200.249	31.2329
203.141	5.46875
206.034	16.21
208.927	64.9526
211.819	102.617
214.712	132.884
217.605	107.374
220.497	88.4961
223.39	77.6816
226.283	77.165
229.175	120.149
232.068	90.5469
234.961	83.582
237.854	81.0088
240.746	124.352
243.639	146.494
246.532	175.757
249.424	213.735
252.317	255.829
255.21	276.79
258.103	250.31
260.995	211.018
263.888	240.713
266.781	276.005
269.673	312.117
272.566	344.388
275.459	387.069
278.351	446.562
281.244	564.956
284.137	701.318
287.029	893.435
289.922	1097.85
292.815	1241.67
295.708	1206.63
298.6	1056.34
301.493	841.588
304.386	587.265
307.278	421.558
310.171	304.278
313.064	244.558
315.957	181.352
318.849	102.062
321.742	74.3594
324.635	61.6348
327.527	69.3633
330.42	57.9404
333.313	29.7432
336.205	37.6299
339.098	20.1719
341.991	16.1592
344.884	8.58398
347.776	21.1172
350.669	16.7129
353.562	14.5518
356.454	11.6045
359.347	18.1943
362.24	15.665
365.132	16.0342
368.025	4.92773
370.918	15.1484
373.81	16.3506
376.703	48.7783
379.596	56.4736
382.489	63.8145
385.381	77.499
388.274	95.3223
391.167	124.124
394.059	113.425
396.952	124.05
399.845	125.965
402.738	126.257
405.63	155.853
408.523	178.368
411.416	265.699
414.308	331.776
417.201	404.768
420.094	480.709
422.986	646.925
425.879	821.744
428.772	1056.02
431.664	1125.09
434.557	980.464
437.45	666.592
440.343	418.741
443.235	289.471
446.128	176.368
449.021	145.102
451.913	81.3457
454.806	35.4609
457.699	30.1221
460.591	26.9023
463.484	2.09082
466.377	4.8457
469.27	14.9541
472.162	17.3447
475.055	40.5674
477.948	52.6348
480.84	41.6426
483.733	25.5684
486.626	3.59473
489.519	15.5879
492.411	19.3828
495.304	9.06934
498.197	12.5898
501.089	14.1084
503.982	11.5498
506.875	6.83301
509.767	3.49219
512.66	25.5205
515.553	12.3916
518.446	8.19434
521.338	12.8389
524.231	32.958
527.124	54.4141
530.016	26.1992
532.909	54.2744
535.802	84.6221
538.694	116.286
541.587	132.253
544.48	129.746
547.372	142.176
550.265	197.398
553.158	190.011
556.051	225.151
558.943	337.099
561.836	401.803
564.729	471.153
567.621	515.681
570.514	538.882
573.407	464.85
576.299	381.297
579.192	319.457
582.085	300.088
584.978	253.988
587.87	261.389
590.763	229.921
593.656	201.323
596.548	185.315
599.441	168.978
602.334	137.657
605.226	135.235
608.119	143.092
611.012	122.85
613.905	96.7373
616.797	99.3135
619.69	118.068
622.583	90.1621
625.475	65.9482
628.368	44.957
631.261	23.5889
634.154	31.0664
637.046	21.5059
639.939	6.98438
642.832	24.4072
645.724	3.94238
648.617	20.4004
651.51	3.67871
654.402	25.5586
657.295	2.13574
660.188	19.4707
663.081	21.8564
665.973	5.35156
668.866	9.54492
671.759	7.49707
674.651	35.0596
677.544	41.9639
680.437	36.6016
683.329	41.3691
686.222	23.6689
689.115	86.3779
692.008	101.964
694.9	76.1143
697.793	73.0195
700.686	65.4277
703.578	55.6045
706.471	66.541
709.364	100.686
712.256	67.499
715.149	96.8984
718.042	75.5342
720.934	104.208
723.827	106.312
726.72	83.3018
729.613	74.0908
732.505	89.2197
735.398	89.0039
738.291	81.2578
741.183	57.8652
744.076	88.6269
746.969	95.7744
749.861	62.6836
752.754	54.7822
755.647	32.1914
758.54	29.7266
761.432	26.332
764.325	44.6934
767.218	45.6348
770.11	39.9092
773.003	55.8154
775.896	40.7422
778.788	51.0498
781.681	4.06836
784.574	4.02441
787.467	3.6543
790.359	32.7803
793.252	63.8867
796.145	48.7002
799.037	16.873
801.93	32.3135
804.823	6.69043
807.716	43.8994
810.608	4.2832
813.501	21.1162
816.394	18.1748
819.286	41.1631
822.179	85.7236
825.072	59.8848
827.964	39.3301
830.857	37.6758
833.75	7.26074
836.643	37.541
839.535	68.2539
842.428	74.2764
845.321	91.0068
848.213	56.1504
851.106	47.5459
853.999	44.5918
856.891	60.3789
859.784	71.4844
862.677	58.3623
865.569	49.9228
868.462	24.8408
871.355	41.5938
874.248	29.0918
877.14	30.3906
880.033	14.0361
882.926	23.6475
885.818	23.5146
888.711	23.7949
891.604	8.88965
894.496	4.70312
897.389	11.876
900.282	21.5293
903.175	11.0713
906.067	5.04394
908.96	5.79492
911.853	7.78613
914.745	9.32715
917.638	3.55859
920.531	9.19629
923.423	18.6006
926.316	7.12793
929.209	15.6113
932.102	0.264648
934.994	18.7812
937.887	42.7109
940.78	36.4111
943.672	25.3213
946.565	97.3115
949.458	76.4463
952.351	96.6133
955.243	96.4365
958.136	186.093
961.029	333.572
963.921	501.132
966.814	733.637
969.707	1166.2
972.599	1878.72
975.492	3091.85
978.385	5054.25
981.278	7920.92
984.17	10895.4
987.063	10285.4
989.956	6610.9
992.848	4097.22
995.741	3116.41
998.634	3061.57
1001.53	3507.1
1004.42	3073.1
1007.31	2058.74
1010.21	1216.39
1013.1	732.175
1015.99	454.235
1018.88	264.756
1021.77	162.537
1024.67	76.8857
1027.56	79.7529
1030.45	31.582
1033.35	32.291
1036.24	77.6406
1039.13	115.647
1042.02	230.013
1044.92	297.849
1047.81	453.236
1050.7	706.403
1053.6	772.905
1056.49	437.475
1059.38	129.998
1062.27	56.3916
1065.17	4.06348
1068.06	11.6396
1070.95	11.9648
1073.84	16.3281
1076.74	5.40918
1079.63	17.5703
1082.52	52.5449
1085.41	66.665
1088.31	38.4434
1091.2	7.04199
1094.09	9.71387
1096.99	3.56738
1099.88	16.8154
1102.77	2.86133
1105.66	14.9766
1108.56	22.29
1111.45	41.8701
1114.34	24.3975
1117.23	21.459
1120.13	63.7617
1123.02	61.7148
1125.91	47.8633
1128.81	43.5107
1131.7	71.2637
1134.59	102.632
1137.48	88.2891
1140.38	80.2266
1143.27	105.337
1146.16	168.73
1149.05	255.235
1151.95	265.539
1154.84	328.475
1157.73	383.614
1160.62	435.817
1163.52	402.685
1166.41	295.714
1169.3	197.247
1172.2	163.867
1175.09	136.057
1177.98	109.838
1180.87	107.054
1183.77	48.2012
1186.66	36.209
1189.55	14.7041
1192.44	15.0283
1195.34	32.2822
1198.23	45.1397
1201.12	44.8975
1204.02	29.3311
1206.91	36.9023
1209.8	59.5391
1212.69	51.8525
1215.59	41.9043
1218.48	27.6094
1221.37	26.6514
1224.26	32.7998
1227.16	33.7617
1230.05	11.2471
1232.94	30.6787
1235.84	5.44629
1238.73	19.2549
1241.62	14.916
1244.51	43.9355
1247.41	51.0488
1250.3	26.6836
1253.19	16.5713
1256.08	22.248
1258.98	84.0801
1261.87	80.7363
1264.76	54.2783
1267.65	55.5371
1270.55	56.1377
1273.44	35.7344
1276.33	10.7246
1279.23	34.4102
1282.12	52.7598
1285.01	11.2646
1287.9	20.6621
1290.8	1.75977
1293.69	28.3584
1296.58	2.95215
1299.47	1.15723
