Measurement: Raman, 780 nm, unoriented, Raman Data Processed
Mineral: Zigrasite
Rruff sample: R120143
Ideal chemistry: MgZr(PO_4_)_2_4H_2_O
Locality: Dunton quarry, Newry, Oxford Co., Maine, USA
Source: James Zigras
Description: Single brownish yellow grain; holotype specimen
Raman shift (cm-1)	intensity
91.1996	0
94.5744	118.111
97.9492	63.7101
101.324	20.1415
104.699	1.56213
108.074	4.67957
111.448	1.16833
114.823	7.43054
118.198	3.52832
121.573	1.33826
124.948	0.037964
128.322	0.062866
131.697	2.30457
135.072	1.91809
138.447	22.0829
141.822	43.9385
145.197	71.5658
148.571	72.4537
151.946	66.4431
155.321	53.6456
158.696	35.3651
162.071	33.3854
165.446	39.1508
168.82	46.2305
172.195	55.7614
175.57	78.0596
178.945	109.672
182.32	116.041
185.694	87.7725
189.069	49.7596
192.444	34.8261
195.819	19.6481
199.194	15.8671
202.569	20.3063
205.943	32.2024
209.318	19.8678
212.693	0.51709
216.068	4.53979
219.442	2.79932
222.817	1.797
226.192	7.83557
229.567	6.4729
232.942	3.10962
236.317	3.72144
239.691	1.48291
243.066	9.50354
246.441	26.0751
249.816	49.4138
253.191	66.7186
256.565	66.1367
259.94	70.3742
263.315	81.6749
266.69	93.0708
270.065	93.4488
273.44	101.802
276.814	111.271
280.189	132.856
283.564	175.52
286.939	229.795
290.314	293.808
293.688	321.602
297.063	300.461
300.438	230.845
303.813	165.341
307.188	112.085
310.562	76.2905
313.937	54.2315
317.312	39.0232
320.687	37.7817
324.062	25.4537
327.437	19.09
330.811	13.4094
334.186	9.94324
337.561	11.1952
340.936	6.88184
344.311	5.24158
347.685	4.88989
351.06	1.50977
354.435	0.782593
357.81	0.707764
361.185	3.25488
364.56	2.33203
367.934	3.229
371.309	0.076172
374.684	1.93396
378.059	2.38281
381.434	4.59875
384.808	9.20862
388.183	7.83606
391.558	13.026
394.933	13.858
398.308	19.1637
401.683	19.9203
405.057	28.2294
408.432	31.1594
411.807	48.162
415.182	69.1634
418.557	98.3348
421.931	149.78
425.306	217.601
428.681	295.634
432.056	309
435.431	223.462
438.805	128.941
442.18	75.5095
445.555	43.7589
448.93	30.6069
452.305	19.1844
455.68	12.8617
459.054	10.7809
462.429	3.28247
465.804	2.42029
469.179	3.77057
472.554	7.68433
475.928	0.411499
479.303	2.15271
482.678	1.61487
486.053	0.109619
489.428	2.71014
492.803	1.87231
496.177	0.352661
499.552	1.18677
502.927	0.319702
506.302	0.68811
509.677	1.46551
513.051	0.585815
516.426	2.6413
519.801	1.90155
523.176	3.18646
526.551	4.10077
529.926	3.44781
533.3	6.01062
536.675	11.1166
540.05	14.533
543.425	21.5544
546.799	24.0236
550.174	28.681
553.549	35.7396
556.924	49.5396
560.299	71.0538
563.674	98.5444
567.048	109.877
570.423	106.796
573.798	94.338
577.173	77.6873
580.548	69.4787
583.923	59.2218
587.297	48.3447
590.672	41.1293
594.047	34.6136
597.422	26.9224
600.797	24.4857
604.171	24.8613
607.546	20.5098
610.921	16.083
614.296	13.0814
617.671	10.1688
621.045	9.54785
624.42	7.58154
627.795	5.46753
631.17	6.84345
634.545	8.01569
637.919	3.50482
641.294	4.56049
644.669	1.85303
648.044	2.6319
651.419	0.050537
654.794	1.04419
658.168	0.366333
661.543	0.355225
664.918	1.77545
668.293	7.58649
671.668	1.35071
675.043	2.10168
678.417	1.99805
681.792	0.843201
685.167	3.23035
688.542	0.139832
691.917	3.0003
695.291	3.57111
698.666	3.76599
702.041	5.66815
705.416	5.06604
708.791	7.08582
712.165	8.6593
715.54	7.26056
718.915	11.9695
722.29	10.578
725.665	8.41809
729.039	12.7142
732.414	13.1661
735.789	10.4587
739.164	8.414
742.539	9.93396
745.914	8.00714
749.288	6.69745
752.663	5.5271
756.038	3.18445
759.413	2.0257
762.788	5.30115
766.163	3.69995
769.537	1.93158
772.912	0.747986
776.287	1.23163
779.662	0.961975
783.037	0.267334
786.411	2.32117
789.786	3.974
793.161	1.72388
796.536	3.23505
799.911	2.62842
803.285	0.090454
806.66	3.30859
810.035	1.2478
813.41	0.220215
816.785	3.9483
820.159	5.49707
823.534	5.65094
826.909	7.22058
830.284	5.1059
833.659	7.19086
837.034	4.84595
840.408	6.38617
843.783	8.31757
847.158	5.91449
850.533	8.60852
853.908	7.6756
857.283	6.64978
860.657	8.16046
864.032	9.17932
867.407	8.58173
870.782	5.63129
874.157	4.3891
877.531	2.01727
880.906	1.71851
884.281	6.23126
887.656	2.0791
891.031	4.29864
894.405	2.61328
897.78	0.052185
901.155	0.548035
904.53	0.807861
907.905	1.19897
911.279	1.5047
914.654	2.61609
918.029	0.187317
921.404	1.25745
924.779	0.806396
928.154	2.21283
931.528	2.82172
934.903	3.73004
938.278	6.96503
941.653	11.0953
945.028	17.2931
948.403	21.0278
951.777	33.7639
955.152	48.0221
958.527	67.6254
961.902	99.2347
965.277	140.152
968.651	216.85
972.026	364.202
975.401	664.081
978.776	1270.24
982.151	2213.78
985.525	2397.47
988.9	1481.09
992.275	846.991
995.65	662.545
999.025	787
1002.4	823.662
1005.77	546.943
1009.15	296.701
1012.52	154.267
1015.9	89.4749
1019.27	48.3415
1022.65	25.8648
1026.02	14.7963
1029.4	12.4437
1032.77	10.9993
1036.15	21.1522
1039.52	52.3309
1042.9	69.4083
1046.27	98.4023
1049.65	182.62
1053.02	196.355
1056.4	91.3724
1059.77	35.1278
1063.15	13.3775
1066.52	2.33823
1069.9	1.60834
1073.27	0.10498
1076.64	0.005219
1080.02	2.92206
1083.39	4.42758
1086.77	4.45679
1090.14	0.317383
1093.52	1.10998
1096.89	1.85733
1100.27	1.0589
1103.64	1.73535
1107.02	1.03278
1110.39	1.28418
1113.77	2.24222
1117.14	2.87375
1120.52	4.69928
1123.89	7.91199
1127.27	9.83185
1130.64	10.8644
1134.02	13.9636
1137.39	17.2365
1140.77	22.014
1144.14	26.0566
1147.52	34.2804
1150.89	48.8609
1154.27	66.4977
1157.64	83.0339
1161.02	84.9695
1164.39	66.8145
1167.77	48.5537
1171.14	34.2455
1174.52	24.3537
1177.89	24.1792
1181.27	14.9758
1184.64	11.2072
1188.01	11.265
1191.39	9.35367
1194.76	8.03754
1198.14	9.26367
1201.51	7.85504
1204.89	6.18234
1208.26	4.33469
1211.64	4.7186
1215.01	6.43329
1218.39	3.01694
1221.76	3.19638
1225.14	3.79804
1228.51	2.82773
1231.89	0.532227
1235.26	1.74332
1238.64	0.382172
1242.01	1.00317
1245.39	0.502655
1248.76	2.36124
1252.14	1.46954
1255.51	2.20196
1258.88	0.804596
1262.26	3.28165
1265.63	2.79913
1269.01	3.10519
1272.38	4.6929
1275.76	1.6246
1279.13	1.19049
1282.51	1.64014
