Measurement: Raman, 532 nm, unoriented, Raman Data Processed
Mineral: Zincite
Rruff sample: R060027
Ideal chemistry: ZnO
Locality: synthetic
Source: Jacque Reynard, Greg Schmidt
Description: Colorless prismatic crystal
Measured chemistry: Zn_1.00_O
Raman shift (cm-1)	intensity
132.284	0
135.659	1.05518
139.034	2.91503
142.409	0.717072
145.783	1.23011
149.158	1.25178
152.533	0.875977
155.908	1.4693
159.283	0.219353
162.657	0.793861
166.032	1.8063
169.407	2.58165
172.782	4.93873
176.157	7.22124
179.532	10.9559
182.906	14.6434
186.281	18.8159
189.656	23.3887
193.031	28.9351
196.406	35.4646
199.78	45.6877
203.155	57.8464
206.53	50.1668
209.905	43.7974
213.28	36.7712
216.655	31.1585
220.029	27.6304
223.404	26.0376
226.779	23.5578
230.154	21.3548
233.529	21.2531
236.904	19.8387
240.278	19.4351
243.653	15.9232
247.028	13.8594
250.403	12.5965
253.778	9.78884
257.152	8.68157
260.527	5.86509
263.902	4.30103
267.277	2.74389
270.652	0.264938
274.026	0.507011
277.401	0.373718
280.776	1.70929
284.151	0.701263
287.526	2.82739
290.901	3.79769
294.275	2.88748
297.65	2.16139
301.025	4.49118
304.4	13.8741
307.775	28.4644
311.149	43.3047
314.524	59.0481
317.899	79.0269
321.274	93.3394
324.649	116.628
328.024	153.307
331.398	170.411
334.773	151.745
338.148	85.3887
341.523	42.6178
344.898	20.5602
348.272	8.88455
351.647	6.80965
355.022	13.3206
358.397	29.0792
361.772	53.9806
365.147	88.0921
368.521	140.893
371.896	228.62
375.271	346.852
378.646	366.398
382.021	230.851
385.395	116.709
388.77	61.9722
392.145	38.3337
395.52	33.1979
398.895	42.0882
402.269	65.2446
405.644	92.5411
409.019	109.557
412.394	110.449
415.769	95.1054
419.144	95.8286
422.518	128.337
425.893	177.595
429.268	253.546
432.643	394.987
436.018	634.483
439.392	692.146
442.767	235.161
446.142	59.6776
449.517	19.0607
452.892	4.74101
456.267	1.21847
459.641	2.5226
463.016	3.60658
466.391	2.60279
469.766	1.5162
473.141	0.587181
476.515	1.49191
479.89	3.65252
483.265	5.96145
486.64	5.90907
490.015	8.46969
493.389	7.56386
496.764	8.12961
500.139	9.25709
503.514	11.0454
506.889	12.619
510.264	14.4261
513.638	15.7747
517.013	15.9852
520.388	15.741
523.763	15.1628
527.138	17.3593
530.513	20.4452
533.887	24.999
537.262	29.535
540.637	26.5331
544.012	21.9773
547.386	18.4765
550.761	14.2801
554.136	11.2861
557.511	9.50357
560.886	7.59299
564.261	5.49857
567.635	4.23239
571.01	3.94928
574.385	2.33559
577.76	1.80246
581.135	1.28235
584.51	0.873032
587.884	0.298935
591.259	0.717484
594.634	0.675201
598.009	0.527298
601.384	0.566498
604.758	0.733398
608.133	1.28323
611.508	2.36643
614.883	4.68933
618.258	4.17479
621.632	3.01677
625.007	2.44911
628.382	2.15373
631.757	2.35216
635.132	4.07097
638.506	5.79298
641.881	7.27132
645.256	8.83873
648.631	10.7746
652.006	14.3217
655.381	16.1923
658.755	18.238
662.13	18.7987
665.505	19.3834
668.88	18.3311
672.255	15.5929
675.63	11.4382
679.004	10.3143
682.379	8.05097
685.754	7.16782
689.129	5.81426
692.504	5.64396
695.878	7.0558
699.253	8.61382
702.628	7.50169
706.003	6.47927
709.378	5.87164
712.753	4.91108
716.127	5.22941
719.502	6.72976
722.877	7.16064
726.252	5.01683
729.627	2.24198
733.001	0.164932
736.376	0.489029
739.751	0.376503
743.126	0.421707
746.501	0.083885
749.875	0.420456
753.25	0.439774
756.625	0.353859
760	0.375069
763.375	3.08647
766.75	3.81804
770.124	5.54996
773.499	7.23257
776.874	7.62902
780.249	7.83691
783.624	8.79163
786.998	8.75789
790.373	9.93358
793.748	9.24102
797.123	8.90888
800.498	9.19572
803.872	9.42081
807.247	9.53783
810.622	10.524
813.997	8.77389
817.372	5.16444
820.747	2.48614
824.121	1.51437
827.496	1.09224
830.871	0.598625
834.246	0.68412
837.621	0.928284
840.995	0.332939
844.37	1.1847
847.745	1.43095
851.12	1.85181
854.495	2.46509
857.87	2.77035
861.244	2.94935
864.619	2.41587
867.994	2.72682
871.369	2.33884
874.744	1.90505
878.119	1.39455
881.493	1.2007
884.868	1.24795
888.243	1.39281
891.618	0.708206
894.993	0.690361
898.367	0.153343
901.742	0.040985
905.117	0.296188
908.492	0.106964
911.867	0.495506
915.241	0.317291
918.616	0.84388
921.991	0.731667
925.366	0.699371
928.741	0.937393
932.115	1.52458
935.49	1.55895
938.865	1.1936
942.24	1.55799
945.615	2.46049
948.99	2.54536
952.364	3.20482
955.739	3.47801
959.114	6.9336
962.489	4.99747
965.864	5.68567
969.239	8.84367
972.613	12.7964
975.988	14.7393
979.363	15.9489
982.738	15.9537
986.112	14.5151
989.487	13.4381
992.862	11.8623
996.237	10.108
999.612	7.73531
1002.99	7.56426
1006.36	5.96758
1009.74	4.33201
1013.11	3.52092
1016.49	1.90266
1019.86	0.38089
1023.24	1.60516
1026.61	4.7364
1029.98	4.85772
1033.36	2.23265
1036.73	1.54317
1040.11	4.0595
1043.48	7.50055
1046.86	10.4207
1050.23	12.2441
1053.61	15.1526
1056.98	19.3158
1060.36	24.4567
1063.73	30.1348
1067.11	35.946
1070.48	40.3655
1073.86	44.7831
1077.23	45.8955
1080.61	50.4178
1083.98	52.4793
1087.36	54.6355
1090.73	58.0129
1094.11	62.4836
1097.48	67.441
1100.86	70.3046
1104.23	72.8978
1107.61	71.5049
1110.98	71.4999
1114.36	72.8042
1117.73	73.844
1121.11	76.895
1124.48	80.0279
1127.86	84.9595
1131.23	89.5629
1134.6	94.2134
1137.98	101.399
1141.35	109.251
1144.73	115.497
1148.1	120.83
1151.48	123.887
1154.85	123.311
1158.23	119.023
1161.6	112.091
1164.98	102.01
1168.35	90.17
1171.73	75.1939
1175.1	58.1505
1178.48	40.825
1181.85	26.5449
1185.23	14.198
1188.6	7.59442
1191.98	2.78402
1195.35	0.569862
1198.73	0.671181
1202.1	2.24344
1205.48	2.23026
1208.85	2.12019
1212.22	1.7644
1215.6	1.5293
1218.97	0.587807
1222.35	1.09984
1225.72	0.966408
1229.1	1.76463
1232.47	2.82989
1235.85	2.92291
1239.22	3.95123
1242.6	4.52348
1245.97	4.82755
1249.35	6.48048
1252.72	7.25605
1256.1	6.57976
1259.47	5.50134
1262.85	3.88529
1266.22	4.12644
1269.6	3.03098
1272.97	3.73926
1276.35	3.10856
1279.72	2.40489
1283.1	1.79858
1286.47	2.06635
1289.85	1.50173
1293.22	0.614281
1296.6	0.732628
1299.97	0.223442
