Measurement: Raman, 532 nm, unoriented, Raman Data Processed
Mineral: Zincocopiapite
Rruff sample: R060779
Ideal chemistry: ZnFe^3+^_4_(SO_4_)_6_(OH)_2_20H_2_O
Locality: Les Valettes, Wallis, Switzerland
Source: Michael Scott
Description: Brownish yellow granular
Raman shift (cm-1)	intensity
142.736	0
145.629	0.513
148.521	15.152
151.414	43.06
154.307	34.292
157.2	82.636
160.092	149.3
162.985	136.376
165.878	90.546
168.77	109.214
171.663	20.141
174.556	22.033
177.449	34.771
180.341	112.567
183.234	216.199
186.127	329.59
189.019	453.745
191.912	648.516
194.805	722.574
197.697	877.171
200.59	1063.21
203.483	1212.78
206.376	1649.63
209.268	2048.57
212.161	2424.78
215.054	2785.32
217.946	3079.56
220.839	3272.36
223.732	3181.53
226.624	2998.12
229.517	3031.34
232.41	3053.6
235.303	3115.33
238.195	3282.75
241.088	3404.95
243.981	3628.68
246.873	3909.93
249.766	4013.07
252.659	4272.58
255.551	4654.53
258.444	5252.95
261.337	5915.04
264.229	6421.07
267.122	6660.64
270.015	6251.21
272.908	5276.89
275.8	4214.39
278.693	3213.36
281.586	2486.01
284.478	1980.41
287.371	1647.03
290.264	1591.27
293.156	1504.81
296.049	1635
298.942	1642.44
301.835	1610.09
304.727	1548.98
307.62	1219.62
310.513	883.001
313.405	553.156
316.298	334.666
319.191	144.708
322.083	14.094
324.976	100.251
327.869	87.204
330.762	112.631
333.654	64.533
336.547	61.246
339.44	16.951
342.332	9.398
345.225	12.797
348.118	57.325
351.01	49.744
353.903	14.268
356.796	17.861
359.688	74.461
362.581	2.345
365.474	2.855
368.366	21.836
371.259	71.444
374.152	70.5
377.045	145.86
379.937	159.627
382.83	183.135
385.723	205.227
388.615	261.416
391.508	307.45
394.401	309.706
397.293	301.444
400.186	378.704
403.079	453.845
405.972	596.433
408.864	788.201
411.757	1022.86
414.65	1378.04
417.542	1719.21
420.435	2137.43
423.328	2389.26
426.22	2487.75
429.113	2382.61
432.006	2265.62
434.899	2223.44
437.791	2257.13
440.684	2361.8
443.577	2545.94
446.469	2629.19
449.362	2772.52
452.255	2730.42
455.147	2614.18
458.04	2430.54
460.933	2338.14
463.826	2439.21
466.718	2523.78
469.611	2607.92
472.504	2621.73
475.396	2567.43
478.289	2447.41
481.182	2269.15
484.074	2160.25
486.967	1839.85
489.86	1500.15
492.753	1208.9
495.645	1031.96
498.538	827.324
501.431	676.364
504.323	428.43
507.216	310.4
510.109	124.598
513.001	59.858
515.894	50.652
518.787	47.069
521.68	55.8
524.572	65.741
527.465	37.642
530.358	24.147
533.25	85.769
536.143	103.413
539.036	165.395
541.928	193.874
544.821	203.386
547.714	242.552
550.606	255.394
553.499	312.776
556.392	317.747
559.284	351.779
562.177	340.036
565.07	363.351
567.963	257.195
570.855	271.227
573.748	182.2
576.641	84.252
579.533	61.911
582.426	79.68
585.319	95.508
588.211	167.262
591.104	261.489
593.997	386.231
596.89	392.292
599.782	444.325
602.675	428.948
605.568	520.148
608.46	649.703
611.353	820.575
614.246	847.542
617.138	1009.49
620.031	1165.18
622.924	1299.47
625.817	1142.39
628.709	745.92
631.602	504.718
634.495	349.514
637.387	268.178
640.28	202.755
643.173	137.065
646.065	53.433
648.958	70.917
651.851	70.145
654.744	62.972
657.636	45.984
660.529	31.602
663.422	67.198
666.314	19.511
669.207	4.84
672.1	4.341
674.992	42.221
677.885	10.124
680.778	3.342
683.67	33.226
686.563	15.77
689.456	7.765
692.349	33.996
695.241	23.975
698.134	24.832
701.027	7.141
703.919	30.135
706.812	4.222
709.705	1.068
712.597	103.96
715.49	74.271
718.383	94.843
721.276	114.446
724.168	114.713
727.061	105.051
729.954	161.343
732.846	106.969
735.739	103.52
738.632	83.984
741.524	94.583
744.417	121.106
747.31	116.227
750.203	96.423
753.095	97.687
755.988	87.859
758.881	85.355
761.773	34.091
764.666	85.233
767.559	13.632
770.451	58.504
773.344	5.506
776.237	42.681
779.13	14.793
782.022	38.191
784.915	23.851
787.808	20.896
790.7	28.618
793.593	87.605
796.486	4.414
799.378	58.724
802.271	46.878
805.164	18.219
808.057	25.92
810.949	48.68
813.842	33.165
816.735	21.807
819.627	64.675
822.52	32.821
825.413	105.733
828.305	87.487
831.198	87.19
834.091	65.251
836.984	118.18
839.876	170.585
842.769	139.831
845.662	148.396
848.554	179.394
851.447	127.321
854.34	164.406
857.232	155.045
860.125	186.101
863.018	174.185
865.911	224.338
868.803	182.085
871.696	153.275
874.589	154.304
877.481	128.738
880.374	120.892
883.267	114.737
886.159	172.482
889.052	214.735
891.945	230.088
894.838	198.092
897.73	180.615
900.623	113.526
903.516	104.131
906.408	96.137
909.301	89.463
912.194	116.548
915.086	53.275
917.979	46.027
920.872	70.801
923.764	46.717
926.657	19.455
929.55	23.871
932.443	36.859
935.335	4.342
938.228	12.389
941.121	47.848
944.013	40.54
946.906	42.77
949.799	24.817
952.691	59.821
955.584	106.036
958.477	146.189
961.37	321.045
964.262	428.381
967.155	587.945
970.048	835.602
972.94	1133.51
975.833	1462
978.726	1772.27
981.618	2081.66
984.511	2313.23
987.404	2417.38
990.296	2713.74
993.189	2854.78
996.082	3219.4
998.974	3650.75
1001.87	4241.09
1004.76	4691.08
1007.65	4683.26
1010.54	4505.14
1013.44	4460.42
1016.33	4594.04
1019.22	4560.01
1022.12	4325.52
1025.01	3788.38
1027.9	2973.06
1030.79	2208.61
1033.69	1582.85
1036.58	1053.74
1039.47	701.524
1042.37	345.224
1045.26	146.447
1048.15	20.485
1051.04	78.978
1053.94	75.693
1056.83	3.414
1059.72	5.348
1062.61	37.388
1065.51	83.742
1068.4	197.973
1071.29	354.792
1074.18	377.211
1077.08	469.23
1079.97	445.508
1082.86	640.207
1085.76	976.284
1088.65	1388.2
1091.54	1602.27
1094.43	1900.4
1097.33	2055.33
1100.22	2084.51
1103.11	2020.6
1106	1886.07
1108.9	1706.39
1111.79	1454.08
1114.68	1234.86
1117.58	1035.44
1120.47	901.12
1123.36	710.235
1126.25	666.833
1129.15	640.161
1132.04	585.539
1134.93	459.44
1137.82	417.835
1140.72	363.082
1143.61	294.616
1146.5	331.862
1149.39	368.951
1152.29	469.366
1155.18	549.409
1158.07	591.226
1160.97	578.941
1163.86	599.567
1166.75	521.531
1169.64	456.114
1172.54	371.748
1175.43	182.435
1178.32	115.126
1181.21	41.119
1184.11	35.747
1187	39.944
1189.89	29.681
1192.79	61.723
1195.68	5.605
1198.57	55.163
1201.46	77.712
1204.36	150.473
1207.25	164.82
1210.14	259.439
1213.03	320.523
1215.93	349.458
1218.82	375.012
1221.71	406.63
1224.61	443.938
1227.5	459.583
1230.39	484.349
1233.28	501.252
1236.18	463.899
1239.07	514.997
1241.96	383.678
1244.85	389.273
1247.75	325.347
1250.64	247.455
1253.53	155.482
1256.42	166.688
1259.32	89.563
1262.21	84.126
1265.1	33.688
1267.99	10.084
1270.89	54.255
1273.78	98.273
1276.67	108.048
1279.57	62.76
1282.46	27.706
1285.35	66.079
1288.24	51
