Measurement: Raman, 532 nm, unoriented, Raman Data Processed
Mineral: Zincolivenite
Rruff sample: R050583
Ideal chemistry: Cu^2+^Zn^2+^As^5+^O_4_(OH)
Locality: Tsumeb mine, Tsumeb, Otavi District, Oshikoto, Namibia
Source: University of Arizona Mineral Museum
Description: Green crystals associated with keyite, R050585, and schultenite, R050584
Measured chemistry: (Zn_1.04_Cu_0.96_)_Î£=2_(As_1.00_O_4_)(OH)
Raman shift (cm-1)	intensity
110.485	0
113.86	602.827
117.235	48.0332
120.609	238.861
123.984	414.06
127.359	508.902
130.734	794.662
134.109	1309.93
137.483	1517.76
140.858	364.816
144.233	54.6216
147.608	42.7144
150.983	82.6867
154.358	3.88013
157.732	95.0184
161.107	380.092
164.482	739.784
167.857	1326.61
171.232	2606.94
174.607	2942.54
177.981	4659.95
181.356	4407.27
184.731	2161.08
188.106	1096.43
191.481	726.854
194.855	739.141
198.23	1115.41
201.605	1454.78
204.98	1343.6
208.355	1129.9
211.729	1134.03
215.104	1730.47
218.479	2991.77
221.854	5216.51
225.229	7035.33
228.603	5197.88
231.978	2888.84
235.353	1495.97
238.728	759.297
242.103	370.561
245.478	74.1555
248.852	29.0604
252.227	72.4628
255.602	55.0248
258.977	20.7264
262.352	382.298
265.726	1043.35
269.101	2119.99
272.476	3655.58
275.851	6287.87
279.226	10770.8
282.601	13501.1
285.975	8666.3
289.35	4887.68
292.725	3422.33
296.1	2473.02
299.475	1685.94
302.849	1055.53
306.224	819.994
309.599	731.539
312.974	718.162
316.349	976.866
319.724	1340.92
323.098	1703.74
326.473	1178.92
329.848	409.12
333.223	76.5963
336.598	12.3744
339.972	18.8307
343.347	48.2707
346.722	215.254
350.097	340.453
353.472	374.421
356.846	364.431
360.221	492.325
363.596	817.103
366.971	1352.25
370.346	1894.5
373.721	2208.72
377.095	1866.04
380.47	1366.44
383.845	793.765
387.22	410.764
390.595	243.065
393.969	68.1072
397.344	5.4458
400.719	38.9862
404.094	51.506
407.469	16.9515
410.844	50.796
414.218	100.895
417.593	177.538
420.968	209.978
424.343	148.159
427.718	63.6329
431.092	9.67127
434.467	7.38147
437.842	0.980957
441.217	12.1931
444.592	59.7975
447.967	53.0564
451.341	80.9973
454.716	143.103
458.091	187.243
461.466	201.21
464.841	236.453
468.215	329
471.59	511.762
474.965	808.042
478.34	1203.27
481.715	1919.68
485.089	2790.16
488.464	2915.5
491.839	2414.9
495.214	2206.57
498.589	2467.56
501.964	3143.97
505.338	3953.79
508.713	4175.95
512.088	3147.96
515.463	2027.78
518.838	1489.31
522.212	1288.7
525.587	1322.72
528.962	1436.17
532.337	1480.71
535.712	1373.12
539.087	962.718
542.461	538.174
545.836	302.04
549.211	160.103
552.586	93.6578
555.961	37.4806
559.335	34.0369
562.71	12.4493
566.085	9.65802
569.46	14.9088
572.835	13.845
576.21	9.30267
579.584	1.82648
582.959	11.1513
586.334	4.7561
589.709	0.731689
593.084	3.59448
596.458	19.3082
599.833	12.2097
603.208	33.1226
606.583	6.04712
609.958	15.419
613.332	39.4108
616.707	30.3228
620.082	33.3652
623.457	68.3847
626.832	75.8367
630.207	78.763
633.581	84.2419
636.956	92.7921
640.331	106.134
643.706	106.508
647.081	112.645
650.456	152.315
653.83	166.566
657.205	167.294
660.58	159.989
663.955	144.186
667.33	159.959
670.704	166.267
674.079	193.557
677.454	215.153
680.829	201.126
684.204	189.166
687.578	213.38
690.953	202.642
694.328	201.814
697.703	180.093
701.078	186.43
704.452	159.541
707.827	153.326
711.202	151.96
714.577	161.874
717.952	158.816
721.327	171.608
724.701	152.572
728.076	168.401
731.451	124.968
734.826	146.035
738.201	134.928
741.576	113.036
744.95	120.587
748.325	105.447
751.7	99.4273
755.075	86.1976
758.45	76.9835
761.824	10.5591
765.199	5.32288
768.574	6.21558
771.949	32.6769
775.324	45.7946
778.698	60.4134
782.073	60.7607
785.448	56.1061
788.823	30.9054
792.198	26.4515
795.573	61.5695
798.947	164.604
802.322	299.919
805.697	440.559
809.072	661.579
812.447	892.365
815.822	1243.73
819.196	1725.62
822.571	2461.8
825.946	3599.95
829.321	5262.01
832.696	7541.04
836.07	10586.6
839.445	13311.3
842.82	15589.3
846.195	21090.5
849.57	32475
852.944	50226
856.319	60340.9
859.694	37468.8
863.069	19502.3
866.444	14227.8
869.818	14687.8
873.193	18832.7
876.568	25751.6
879.943	32397.8
883.318	30752
886.693	20081.8
890.067	11090.5
893.442	6147.99
896.817	3662.7
900.192	2314.45
903.567	1440.37
906.942	950.579
910.316	583.642
913.691	371.85
917.066	280.453
920.441	168.107
923.816	106.723
927.19	3.38892
930.565	4.41492
933.94	34.7098
937.315	49.3977
940.69	10.2837
944.064	79.3009
947.439	31.2572
950.814	36.7356
954.189	27.9152
957.564	4.38892
960.938	4.39716
964.313	58.2176
967.688	108.176
971.063	137.78
974.438	161.031
977.813	198.247
981.187	265.162
984.562	281.586
987.937	330.755
991.312	351.389
994.687	362.728
998.062	386.824
1001.44	391.827
1004.81	364.796
1008.19	352.082
1011.56	318.623
1014.94	288.105
1018.31	241.605
1021.68	235.838
1025.06	201.266
1028.43	168.349
1031.81	142.858
1035.18	114.739
1038.56	106.826
1041.93	105.547
1045.31	86.2817
1048.68	84.7184
1052.06	60.6309
1055.43	61.0533
1058.81	44.2923
1062.18	42.2924
1065.56	18.8563
1068.93	15.7844
1072.31	8.5545
1075.68	26.6362
1079.06	18.6205
1082.43	30.91
1085.81	32.4732
1089.18	53.2519
1092.56	68.4515
1095.93	58.1265
1099.31	79.6856
1102.68	80.5464
1106.06	99.0464
1109.43	113.458
1112.81	107.013
1116.18	132.579
1119.56	136.284
1122.93	124.5
1126.3	103.834
1129.68	99.1461
1133.05	64.8475
1136.43	59.7247
1139.8	42.7225
1143.18	25.3837
1146.55	26.1932
1149.93	22.0078
1153.3	3.74091
1156.68	1.27844
1160.05	5.54578
1163.43	2.18066
1166.8	2.37805
1170.18	10.9826
1173.55	0.662292
1176.93	5.21277
1180.3	2.39294
1183.68	0.252563
1187.05	28.0563
1190.43	17.6083
1193.8	25.1689
1197.18	0.266174
1200.55	14.582
1203.92	27.9421
1207.3	28.2884
1210.67	29.7795
1214.05	18.3462
1217.42	16.1703
1220.8	29.7517
1224.17	31.2275
1227.55	29.7074
1230.92	47.4836
1234.3	25.5615
1237.67	40.0279
1241.05	36.22
1244.42	28.6951
1247.8	32.8736
1251.17	35.8339
1254.55	23.847
1257.92	0.53186
1261.3	32.0233
1264.67	20.3294
1268.05	21.8664
1271.42	5.62445
1274.8	28.4205
1278.17	0
