Measurement: Raman, 780 nm, unoriented, Raman Data Processed
Mineral: Zincite
Rruff sample: R050492
Ideal chemistry: ZnO
Locality: Franklin, Sussex County, New Jersey, USA
Source: California Institute of Technology
Description: Deep red massive
Measured chemistry: (Zn_0.96_Mn_0.04_)_Î£=1_O
Raman shift (cm-1)	intensity
145.852	0
148.744	0.256027
151.637	1.19762
154.53	0.575668
157.423	0.46344
160.315	0.249222
163.208	1.07977
166.101	1.77084
168.994	0.691589
171.886	3.26767
174.779	3.67975
177.672	6.47458
180.564	7.85464
183.457	10.8893
186.35	11.6875
189.242	13.9075
192.135	14.4896
195.028	18.879
197.921	20.9443
200.813	24.6083
203.706	27.1902
206.599	27.0266
209.491	24.3895
212.384	23.261
215.277	21.3544
218.169	18.9549
221.062	18.6987
223.955	18.0078
226.847	18.2256
229.74	17.7213
232.633	17.361
235.526	15.1434
238.418	15.7794
241.311	18.3476
244.204	14.5377
247.096	13.4568
249.989	12.6357
252.882	11.0238
255.774	10.2199
258.667	9.26459
261.56	8.85471
264.453	7.82605
267.345	6.13617
270.238	3.52405
273.131	3.2079
276.023	3.76862
278.916	3.19298
281.809	3.30179
284.702	4.12967
287.594	0.114288
290.487	3.70645
293.38	2.55063
296.272	3.17509
299.165	4.68468
302.058	8.14456
304.95	9.79681
307.843	14.552
310.736	22.1454
313.628	30.9915
316.521	42.6845
319.414	50.9383
322.307	63.807
325.199	80.5597
328.092	94.0071
330.985	95.8902
333.877	84.9449
336.77	62.6685
339.663	47.6648
342.556	34.4919
345.448	24.7543
348.341	16.9752
351.234	12.6768
354.126	8.48828
357.019	7.08371
359.912	2.23024
362.805	3.39293
365.697	1.36548
368.59	0.23674
371.483	0.210205
374.375	1.09044
377.268	1.07971
380.161	0.699432
383.053	1.71028
385.946	3.31453
388.839	1.27744
391.731	0.975464
394.624	1.90608
397.517	5.60892
400.41	10.0574
403.302	20.6388
406.195	32.8548
409.088	51.831
411.98	75.729
414.873	113.261
417.766	172.283
420.659	254.633
423.551	343.803
426.444	429.025
429.337	549.05
432.229	710.096
435.122	878.526
438.015	829.842
440.907	467.588
443.8	194.938
446.693	88.6408
449.586	48.3482
452.478	29.3038
455.371	20.183
458.264	14.1771
461.156	10.1682
464.049	8.13062
466.942	10.2783
469.834	7.42979
472.727	5.17023
475.62	4.21513
478.513	2.91219
481.405	4.00511
484.298	2.81216
487.191	2.48901
490.083	0.374268
492.976	0.541916
495.869	1.54169
498.762	7.377
501.654	13.7526
504.547	26.6929
507.44	47.9006
510.332	78.5769
513.225	124.704
516.118	163.954
519.01	183.336
521.903	184.573
524.796	177.883
527.688	170.06
530.581	158.771
533.474	143.889
536.367	130.017
539.259	117.734
542.152	106.391
545.045	98.1654
547.937	87.666
550.83	74.9324
553.723	63.6324
556.615	55.2947
559.508	48.7485
562.401	46.33
565.294	40.568
568.186	36.777
571.079	32.808
573.972	28.0028
576.864	22.434
579.757	17.058
582.65	10.2999
585.543	6.26825
588.435	3.07525
591.328	1.15993
594.221	2.33581
597.113	2.17363
600.006	2.18468
602.899	0.276222
605.791	1.41612
608.684	2.72926
611.577	4.84804
614.47	7.08581
617.362	8.17376
620.255	9.71733
623.148	9.82855
626.04	10.7304
628.933	11.4489
631.826	12.7972
634.718	13.2281
637.611	14.5484
640.504	14.674
643.397	17.7884
646.289	18.755
649.182	20.0781
652.075	20.9669
654.967	18.7477
657.86	18.0028
660.753	17.1128
663.645	15.7287
666.538	15.3728
669.431	14.4483
672.324	11.5814
675.216	11.0852
678.109	8.49522
681.002	8.94486
683.894	8.76257
686.787	8.65673
689.68	7.70705
692.572	7.38325
695.465	8.29894
698.358	8.81233
701.251	7.88866
704.143	7.62945
707.036	7.75977
709.929	7.66343
712.821	7.29777
715.714	6.11391
718.607	6.6245
721.5	5.4362
724.392	4.07283
727.285	2.3014
730.178	1.8343
733.07	1.3431
735.963	0.321419
738.856	0.834045
741.749	0.057159
744.641	0.177071
747.534	0.126053
750.427	0.32222
753.319	0.740158
756.212	0.861275
759.105	0.092415
761.997	0.122368
764.89	0.733818
767.783	2.21706
770.676	2.71821
773.568	1.88925
776.461	2.8953
779.354	3.16242
782.246	3.03967
785.139	3.33002
788.032	3.32347
790.924	2.43941
793.817	4.20686
796.71	3.82036
799.602	3.4094
802.495	2.56314
805.388	3.04662
808.281	2.95713
811.173	2.36687
814.066	2.13369
816.959	1.04998
819.851	1.59349
822.744	1.21604
825.637	0.466942
828.529	0.711815
831.422	0.313728
834.315	0.509254
837.208	1.29841
840.1	1.53818
842.993	1.62729
845.886	1.32269
848.778	1.58572
851.671	2.30808
854.564	1.99414
857.457	2.25632
860.349	2.54046
863.242	1.33473
866.135	5.78435
869.027	2.1291
871.92	1.37141
874.813	1.63626
877.705	1.90029
880.598	1.16042
883.491	0.739029
886.384	1.6012
889.276	1.48943
892.169	1.15135
895.062	1.13351
897.954	1.17266
900.847	1.06663
903.74	1.48135
906.632	0.926373
909.525	1.37064
912.418	0.250732
915.311	0.124325
918.203	0.411774
921.096	0.988815
923.989	0.407688
926.881	0.263546
929.774	0.807484
932.667	0.611874
935.559	1.10571
938.452	0.516029
941.345	1.58098
944.238	0.766689
947.13	0.261864
950.023	0.034107
952.916	0.837383
955.808	4.35909
958.701	0.469841
961.594	1.61346
964.486	1.84344
967.379	2.21783
970.272	2.72936
973.165	1.68454
976.057	1.12437
978.95	0.638035
981.843	1.5683
984.735	1.24202
987.628	1.1752
990.521	0.722446
993.413	1.09727
996.306	1.14436
999.199	0.707016
1002.09	0.825874
1004.98	0.218361
1007.88	0.328979
1010.77	0.301178
1013.66	0.576736
1016.55	0.66877
1019.45	1.25789
1022.34	1.22132
1025.23	0.158752
1028.13	1.38477
1031.02	1.96527
1033.91	3.7701
1036.8	4.43864
1039.7	5.66045
1042.59	6.35655
1045.48	7.86758
1048.38	8.93529
1051.27	10.219
1054.16	11.2645
1057.05	12.9036
1059.95	14.4452
1062.84	16.2508
1065.73	17.4731
1068.62	18.7596
1071.52	18.9148
1074.41	19.5924
1077.3	21.0603
1080.19	20.8917
1083.09	22.3762
1085.98	23.4279
1088.87	24.7157
1091.77	26.6362
1094.66	28.5312
1097.55	27.804
1100.44	28.6872
1103.34	26.711
1106.23	24.4888
1109.12	24.1075
1112.01	23.3945
1114.91	21.536
1117.8	22.4551
1120.69	21.9881
1123.59	23.3994
1126.48	23.3665
1129.37	24.1545
1132.26	24.9929
1135.16	24.49
1138.05	26.1457
1140.94	26.8738
1143.83	27.9428
1146.73	27.6365
1149.62	27.9128
1152.51	27.2516
1155.4	26.1852
1158.3	25.0856
1161.19	23.0677
1164.08	21.2019
1166.98	17.261
1169.87	15.1055
1172.76	12.7267
1175.65	10.0603
1178.55	6.95162
1181.44	4.80615
1184.33	2.81014
1187.22	1.65048
1190.12	0.196156
1193.01	0.785744
1195.9	0.826057
1198.8	1.40577
1201.69	1.19125
1204.58	0.599781
1207.47	1.03086
1210.37	0.150673
1213.26	0.589718
1216.15	0.237812
1219.04	0.495537
1221.94	1.33875
1224.83	0.535316
1227.72	1.23527
1230.62	1.53999
1233.51	2.80114
1236.4	2.88821
1239.29	3.46383
1242.19	4.53377
1245.08	3.98481
1247.97	2.32727
1250.86	2.43757
1253.76	2.23583
1256.65	2.17765
1259.54	1.73674
1262.43	1.75723
1265.33	2.42374
1268.22	1.68731
1271.11	0.85104
1274.01	1.29573
1276.9	3.14965
1279.79	0.268074
1282.68	0.954506
1285.58	0.010315
