Measurement: Raman, 532 nm, unoriented, Raman Data Processed
Mineral: Zincite
Rruff sample: R050492
Ideal chemistry: ZnO
Locality: Franklin, Sussex County, New Jersey, USA
Source: California Institute of Technology
Description: Deep red massive
Measured chemistry: (Zn_0.96_Mn_0.04_)_Î£=1_O
Raman shift (cm-1)	intensity
145.487	0
148.862	0.13792
152.237	0.279743
155.612	2.61382
158.986	0.711044
162.361	1.06111
165.736	0.379677
169.111	0.451279
172.486	1.14603
175.86	0.440544
179.235	0.934303
182.61	0.531017
185.985	0.288834
189.36	0.012081
192.734	0.690723
196.109	1.67571
199.484	3.20207
202.859	5.70279
206.234	4.68065
209.608	3.91323
212.983	2.82737
216.358	2.73321
219.733	2.90527
223.108	4.52237
226.483	5.68137
229.857	5.96457
233.232	6.7823
236.607	8.19438
239.982	10.4444
243.357	12.3801
246.732	12.0294
250.106	12.9548
253.481	13.2563
256.856	12.0193
260.231	9.01548
263.606	6.30599
266.98	3.35724
270.355	1.33011
273.73	0.287533
277.105	0.127781
280.48	1.72997
283.854	2.89909
287.229	3.55589
290.604	3.80207
293.979	5.54224
297.354	6.89996
300.729	9.55909
304.103	13.2608
307.478	16.6083
310.853	21.8441
314.228	29.9638
317.603	35.4905
320.978	45.3267
324.352	55.6716
327.727	66.6596
331.102	73.0093
334.477	67.608
337.852	54.0286
341.226	45.7529
344.601	39.815
347.976	33.7546
351.351	29.1602
354.726	25.3595
358.1	21.3327
361.475	18.4997
364.85	15.4527
368.225	13.4618
371.6	10.0518
374.974	7.99524
378.349	5.36671
381.724	3.06591
385.099	0.269669
388.474	1.74284
391.849	2.49126
395.223	4.19937
398.598	3.9112
401.973	1.14544
405.348	4.15137
408.723	12.9335
412.098	29.3661
415.472	54.8176
418.847	99.5078
422.222	173.882
425.597	260.939
428.972	344.799
432.346	475.603
435.721	616.009
439.096	573.256
442.471	244.277
445.846	97.727
449.221	58.691
452.595	43.3539
455.97	35.2401
459.345	34.2644
462.72	33.7809
466.095	33.7697
469.469	33.5682
472.844	33.4092
476.219	30.603
479.594	26.1879
482.969	20.7957
486.344	16.9513
489.718	6.36587
493.093	2.5882
496.468	5.85632
499.843	5.98013
503.218	50.4602
506.592	134.256
509.967	282.711
513.342	516.569
516.717	751.92
520.092	842.605
523.466	839.038
526.841	822.597
530.216	780.509
533.591	714.298
536.966	653.895
540.341	598.161
543.715	549.892
547.09	509.195
550.465	466.438
553.84	425.138
557.215	413.333
560.59	411.109
563.964	413.515
567.339	417.49
570.714	404.236
574.089	367.737
577.464	312.956
580.838	243.38
584.213	167.255
587.588	104.106
590.963	56.0869
594.338	21.5396
597.712	3.88277
601.087	4.37972
604.462	6.73633
607.837	4.50389
611.212	2.45998
614.587	0.786407
617.961	4.07176
621.336	5.0659
624.711	7.70151
628.086	11.5798
631.461	14.0413
634.835	16.582
638.21	20.4676
641.585	23.6202
644.96	26.2011
648.335	28.0906
651.71	29.4931
655.084	31.2005
658.459	29.9467
661.834	25.7316
665.209	20.9833
668.584	16.6822
671.958	12.6718
675.333	10.141
678.708	7.85827
682.083	7.18173
685.458	7.23937
688.832	6.03838
692.207	6.75197
695.582	6.46778
698.957	5.65279
702.332	5.76701
705.707	5.21223
709.081	4.9387
712.456	4.29004
715.831	4.23759
719.206	4.06981
722.581	2.66568
725.955	2.1962
729.33	0.097321
732.705	0.442245
736.08	0.757004
739.455	0.191719
742.83	0.43438
746.204	0.736176
749.579	0.032776
752.954	0.061863
756.329	0.233768
759.704	1.24811
763.078	1.75718
766.453	3.03678
769.828	3.73318
773.203	4.49472
776.578	4.85688
779.952	5.18999
783.327	4.81417
786.702	4.93725
790.077	4.9249
793.452	3.72461
796.827	3.83731
800.201	3.10294
803.576	3.68005
806.951	3.00758
810.326	2.58175
813.701	2.51998
817.076	2.32491
820.45	1.4302
823.825	1.44202
827.2	0.994259
830.575	1.65643
833.95	1.77362
837.324	2.54035
840.699	2.95915
844.074	3.57385
847.449	3.95681
850.824	4.76239
854.198	5.45121
857.573	6.17124
860.948	7.36544
864.323	7.51541
867.698	9.20519
871.073	9.29105
874.447	10.2123
877.822	11.697
881.197	12.718
884.572	13.1813
887.947	13.2213
891.322	13.9837
894.696	12.1409
898.071	11.854
901.446	10.2045
904.821	9.91371
908.196	8.33995
911.57	7.78329
914.945	5.61613
918.32	4.81417
921.695	3.8718
925.07	1.94526
928.444	1.12491
931.819	0.465439
935.194	0.591736
938.569	0.853836
941.944	0.25264
945.318	0.191757
948.693	0.921745
952.068	1.84682
955.443	2.13184
958.818	3.70652
962.193	4.70547
965.567	6.24803
968.942	8.64175
972.317	7.71619
975.692	8.63469
979.067	9.95184
982.442	10.2273
985.816	9.27225
989.191	9.49861
992.566	8.33328
995.941	7.68114
999.316	6.32086
1002.69	3.99107
1006.07	3.36452
1009.44	0.791214
1012.82	1.13211
1016.19	4.49829
1019.57	4.15056
1022.94	3.14226
1026.31	1.27939
1029.69	10.7636
1033.06	20.7987
1036.44	32.9546
1039.81	43.3087
1043.19	56.0842
1046.56	64.5932
1049.94	71.2241
1053.31	77.7328
1056.69	80.9331
1060.06	84.6883
1063.44	87.2657
1066.81	87.2298
1070.19	86.9017
1073.56	85.9119
1076.94	85.6831
1080.31	87.6804
1083.69	89.1653
1087.06	91.6811
1090.44	92.833
1093.81	96.5057
1097.18	98.6949
1100.56	95.0918
1103.93	89.5959
1107.31	81.4938
1110.68	73.0324
1114.06	63.7249
1117.43	57.3152
1120.81	52.4874
1124.18	46.5135
1127.56	44.5151
1130.93	44.2881
1134.31	44.7509
1137.68	47.8212
1141.06	52.3772
1144.43	54.3025
1147.81	55.0337
1151.18	58.753
1154.56	57.7884
1157.93	57.0162
1161.31	52.8967
1164.68	47.2179
1168.06	40.7577
1171.43	31.482
1174.81	23.001
1178.18	13.6394
1181.56	6.34079
1184.93	1.34811
1188.31	1.73554
1191.68	2.99686
1195.06	3.86858
1198.43	3.31876
1201.81	2.11108
1205.18	0.070435
1208.55	0.840405
1211.93	3.45543
1215.3	4.95902
1218.68	6.85197
1222.05	8.67651
1225.43	8.66703
1228.8	10.8733
1232.18	11.6722
1235.55	13.096
1238.93	14.1442
1242.3	14.7744
1245.68	15.0713
1249.05	13.8931
1252.43	12.5941
1255.8	10.5775
1259.18	9.18932
1262.55	8.94411
1265.93	8.27237
1269.3	7.52113
1272.68	6.71723
1276.05	5.90193
1279.42	4.43494
1282.8	3.83762
1286.17	2.54219
1289.55	2.72053
1292.92	1.81217
1296.3	0.271645
1299.67	0.138302
1303.05	0.008324
