Measurement: Raman, 780 nm, unoriented, Raman Data Processed
Mineral: Zincroselite
Rruff sample: R100192
Ideal chemistry: Ca_2_Zn^2+^(As^5+^O_4_)_2_2H_2_O
Locality: Tsumeb, Namibia
Source: William W Pinch
Description: Colorless, lathlike, elongated and striated, associated with tennantite ore. Cotype specimen from John Innes
Measured chemistry: Ca_2.06_(Zn_0.90_Mn_0.06_Mg_0.05_Fe_0.01_)(As_0.99_O_4_)_2_Â·2H_2_O
Raman shift (cm-1)	intensity
130.139	0
133.032	0.760681
135.924	3.43158
138.817	32.6424
141.71	70.9353
144.602	82.9143
147.495	108.468
150.388	150.654
153.281	218.199
156.173	305.641
159.066	428.446
161.959	501.085
164.851	488.003
167.744	495.519
170.637	564.58
173.53	666.096
176.422	781.092
179.315	901.055
182.208	1006.19
185.1	1038.79
187.993	975.865
190.886	845.457
193.778	639.532
196.671	399.13
199.564	236.913
202.457	151.657
205.349	106.801
208.242	78.7155
211.135	54.3858
214.027	34.3962
216.92	15.6097
219.813	3.8483
222.705	0.240021
225.598	2.90222
228.491	5.71683
231.383	8.39447
234.276	20.7452
237.169	29.254
240.061	38.1457
242.954	40.3157
245.847	24.1503
248.74	5.89862
251.632	5.41046
254.525	13.1839
257.418	10.0838
260.31	5.33057
263.203	6.47937
266.096	29.7618
268.988	46.7988
271.881	76.2886
274.774	120.104
277.667	189.35
280.559	280.055
283.452	369.041
286.345	398.344
289.237	412.882
292.13	474.906
295.023	574.047
297.916	671.008
300.808	645.919
303.701	481.776
306.594	320.63
309.486	229.154
312.379	176.155
315.272	162.078
318.164	171.266
321.057	198.129
323.95	236.487
326.842	284.711
329.735	355.629
332.628	443.083
335.521	524.008
338.413	537.402
341.306	476.676
344.199	424.792
347.091	420.305
349.984	437.02
352.877	441.75
355.769	395.049
358.662	298.18
361.555	189.159
364.447	107.332
367.34	54.6043
370.233	23.4869
373.126	7.90134
376.018	8.18387
378.911	10.7788
381.804	7.65909
384.696	0.534515
387.589	8.9924
390.482	13.6827
393.375	20.3585
396.267	45.9389
399.16	85.3445
402.053	122.602
404.945	153.275
407.838	177.247
410.731	212.378
413.623	256.777
416.516	286.591
419.409	285.055
422.301	243.621
425.194	199.45
428.087	154.009
430.98	117.714
433.872	91.1463
436.765	80.3429
439.658	76.9408
442.55	84.6296
445.443	101.646
448.336	132.351
451.228	142.187
454.121	111.407
457.014	60.3964
459.907	34.3817
462.799	30.5802
465.692	32.9072
468.585	44.2407
471.477	52.0052
474.37	56.6574
477.263	54.5323
480.156	42.5209
483.048	30.078
485.941	18.9946
488.834	11.2927
491.726	6.22702
494.619	0.236145
497.512	0.222076
500.404	2.54077
503.297	1.91263
506.19	2.47849
509.082	1.57089
511.975	1.32541
514.868	0.682129
517.761	1.74687
520.653	1.60301
523.546	3.66211
526.439	4.11636
529.331	6.66623
532.224	5.97475
535.117	6.99748
538.01	9.34206
540.902	12.0589
543.795	11.1739
546.688	17.6431
549.58	18.9034
552.473	17.0323
555.366	15.9962
558.258	15.6739
561.151	12.6689
564.044	9.78914
566.936	8.99672
569.829	6.06074
572.722	6.72853
575.615	3.1133
578.507	4.72003
581.4	2.55905
584.293	2.4894
587.185	1.06035
590.078	1.63731
592.971	0.820541
595.863	1.0571
598.756	0.005981
601.649	1.54312
604.542	0.205292
607.434	0.883408
610.327	1.05173
613.22	2.60138
616.112	0.725708
619.005	0.278839
621.898	0.163666
624.79	1.1243
627.683	2.83997
630.576	0.794922
633.468	6.45871
636.361	8.21988
639.254	8.08951
642.146	10.5457
645.039	11.7629
647.932	11.0662
650.825	13.3069
653.717	15.4029
656.61	14.5272
659.503	18.1252
662.395	12.4498
665.288	12.13
668.181	7.88415
671.073	6.8122
673.966	5.56537
676.859	2.01456
679.752	0.982758
682.644	4.64514
685.537	4.71094
688.43	8.64032
691.322	12.4085
694.215	13.4546
697.108	17.3211
700	16.2737
702.893	18.5369
705.786	21.5851
708.679	23.1972
711.571	23.7342
714.464	24.7293
717.357	21.4135
720.249	20.5829
723.142	18.4971
726.035	12.9804
728.928	10.2156
731.82	3.66479
734.713	0.519501
737.606	6.8364
740.498	7.14239
743.391	9.03403
746.284	11.1013
749.176	10.9285
752.069	5.75119
754.962	2.09027
757.855	12.6133
760.747	34.9504
763.64	63.5772
766.533	119.65
769.425	191.037
772.318	284.302
775.211	389.407
778.103	507.844
780.996	639.745
783.889	710.958
786.782	667.933
789.674	539.387
792.567	412.255
795.46	342.685
798.352	326.4
801.245	375.776
804.138	531.163
807.03	904.283
809.923	1725.2
812.816	2628.57
815.708	3346.88
818.601	4418.23
821.494	6190.75
824.386	7851.05
827.279	5642.02
830.172	2846.16
833.065	1741.6
835.957	1354.22
838.85	1175.39
841.743	1009.45
844.635	789.755
847.528	583.219
850.421	444.978
853.313	358.501
856.206	309.314
859.099	277.154
861.992	251.577
864.884	221.786
867.777	188.555
870.67	147.816
873.562	101.608
876.455	67.387
879.348	42.2792
882.24	30.8486
885.133	17.6974
888.026	7.2347
890.919	1.14282
893.811	5.82507
896.704	6.75688
899.597	7.54787
902.489	6.37784
905.382	5.59761
908.275	5.01651
911.168	2.93712
914.06	3.26218
916.953	0.998474
919.846	4.64269
922.738	7.22856
925.631	7.20045
928.524	11.513
931.416	12.2823
934.309	13.2105
937.202	16.3723
940.095	17.8949
942.987	20.9737
945.88	22.2178
948.773	25.2168
951.665	24.0206
954.558	27.6706
957.451	27.7985
960.343	26.1888
963.236	26.7906
966.129	26.237
969.021	24.3765
971.914	22.605
974.807	22.2128
977.699	22.0682
980.592	20.8304
983.485	17.8617
986.378	15.9772
989.27	11.1043
992.163	11.1924
995.056	8.27753
997.948	7.37958
1000.84	7.2823
1003.73	6.26816
1006.63	6.21884
1009.52	3.74715
1012.41	5.0598
1015.3	2.94611
1018.2	3.55542
1021.09	2.6665
1023.98	1.5509
1026.88	0.251434
1029.77	5.06935
1032.66	1.36154
1035.55	2.32201
1038.45	3.61011
1041.34	2.69694
1044.23	0.9039
1047.12	1.09647
1050.02	3.0271
1052.91	1.6055
1055.8	1.9222
1058.69	2.99033
1061.59	5.21272
1064.48	4.15169
1067.37	2.58827
1070.27	1.94873
1073.16	1.82635
1076.05	2.71117
1078.94	1.1387
1081.84	0.36319
1084.73	3.07747
1087.62	1.50588
1090.52	2.06851
1093.41	1.6666
1096.3	2.60538
1099.19	1.12717
1102.09	1.41995
1104.98	2.76019
1107.87	2.26524
1110.76	0.017197
1113.66	0.744659
1116.55	0.720932
1119.44	1.9191
1122.33	0.765015
1125.23	0.588913
1128.12	0.02446
1131.01	1.78326
1133.9	0.909668
1136.8	0.949356
1139.69	1.93425
1142.58	2.51242
1145.48	3.1548
1148.37	1.3138
1151.26	2.34836
1154.15	0.859131
1157.05	1.45454
1159.94	1.83633
1162.83	2.88779
1165.72	2.46796
1168.62	2.96419
1171.51	0.940994
1174.4	2.87105
1177.3	1.97095
1180.19	3.59254
1183.08	1.55257
1185.97	1.5461
1188.87	2.54834
1191.76	4.12688
1194.65	2.54038
1197.55	0.75795
1200.44	0.288986
1203.33	0.91301
1206.22	0.480438
1209.12	1.62375
1212.01	3.23213
1214.9	0.6763
1217.79	0.985077
1220.69	1.42754
1223.58	4.72829
1226.47	1.89291
1229.36	0.766449
1232.26	1.47987
1235.15	4.01176
1238.04	3.85373
1240.93	3.69765
1243.83	5.4921
1246.72	3.69272
1249.61	3.97067
1252.51	3.67267
1255.4	3.64818
1258.29	5.2263
1261.18	4.45764
1264.08	2.39705
1266.97	3.30406
1269.86	2.3295
1272.76	0.208527
1275.65	1.5826
1278.54	1.72275
1281.43	1.95114
1284.33	1.13777
