Measurement: Raman, 532 nm, unoriented, Raman Data Processed
Mineral: Zincroselite
Rruff sample: R100192
Ideal chemistry: Ca_2_Zn^2+^(As^5+^O_4_)_2_2H_2_O
Locality: Tsumeb, Namibia
Source: William W Pinch
Description: Colorless, lathlike, elongated and striated, associated with tennantite ore. Cotype specimen from John Innes
Measured chemistry: Ca_2.06_(Zn_0.90_Mn_0.06_Mg_0.05_Fe_0.01_)(As_0.99_O_4_)_2_Â·2H_2_O
Raman shift (cm-1)	intensity
132.015	0
135.39	13.4726
138.765	3.24809
142.14	8.39645
145.514	45.7927
148.889	71.5695
152.264	128.107
155.639	240.843
159.014	394.294
162.388	510.137
165.763	599.005
169.138	785.718
172.513	985.328
175.888	1245.64
179.263	1525.15
182.637	1745.05
186.012	1761.51
189.387	1540.61
192.762	1248.32
196.137	915.821
199.512	676.348
202.886	520.91
206.261	414.682
209.636	339.546
213.011	288.707
216.386	218.677
219.761	185.771
223.135	189.764
226.51	199.983
229.885	226.572
233.26	268.153
236.635	288.755
240.009	265.494
243.384	220.271
246.759	141.15
250.134	66.8185
253.509	18.8151
256.884	11.8145
260.258	21.3311
263.633	23.711
267.008	10.1276
270.383	9.86987
273.758	40.344
277.132	89.8803
280.507	187.538
283.882	267.445
287.257	239.022
290.632	214.975
294.007	291.413
297.381	424.841
300.756	481.07
304.131	408.28
307.506	314.661
310.881	296.284
314.255	364.879
317.63	538.674
321.005	840.74
324.38	1213.99
327.755	1755.6
331.13	2492.91
334.504	3289.74
337.879	3466.18
341.254	2710.85
344.629	1956.84
348.004	1590.61
351.378	1448.85
354.753	1265.79
358.128	936.388
361.503	573.043
364.878	305.956
368.253	150.701
371.627	63.9808
375.002	17.9878
378.377	4.07794
381.752	19.6542
385.127	18.4418
388.502	3.03442
391.876	29.9155
395.251	81.5297
398.626	160.454
402.001	237.612
405.376	245.921
408.75	228.38
412.125	271.994
415.5	344.107
418.875	403.327
422.25	435.903
425.625	428.642
428.999	336.279
432.374	201.456
435.749	111.613
439.124	64.7115
442.499	50.4625
445.873	67.6331
449.248	103.052
452.623	124.108
455.998	104.989
459.373	112.284
462.748	166.311
466.122	237.121
469.497	320.243
472.872	378.161
476.247	373.13
479.622	323.938
482.996	241.16
486.371	165.242
489.746	103.133
493.121	60.3769
496.496	29.7771
499.87	14.9024
503.245	2.58621
506.62	3.26724
509.995	4.96668
513.37	6.5376
516.745	4.93839
520.119	3.01007
523.494	0.636017
526.869	1.80371
530.244	1.6637
533.619	4.58313
536.994	7.69333
540.368	12.5631
543.743	13.3093
547.118	26.105
550.493	20.4287
553.868	24.6814
557.242	25.8099
560.617	25.3897
563.992	28.9372
567.367	27.8234
570.742	24.9906
574.117	24.0778
577.491	19.1354
580.866	15.5249
584.241	14.0253
587.616	9.63477
590.991	9.86447
594.365	8.16598
597.74	3.66901
601.115	2.72769
604.49	3.2532
607.865	3.70441
611.24	2.62567
614.614	2.36011
617.989	2.40222
621.364	0.899872
624.739	1.41202
628.114	2.97861
631.489	2.76373
634.863	2.9978
638.238	10.4816
641.613	10.9468
644.988	16.0563
648.363	16.4955
651.737	14.7899
655.112	21.5563
658.487	22.8874
661.862	22.6441
665.237	15.191
668.612	12.9676
671.986	11.0519
675.361	12.1682
678.736	10.5503
682.111	17.7562
685.486	35.3247
688.861	56.6932
692.235	79.4317
695.61	96.2183
698.985	116.938
702.36	128.088
705.735	138.194
709.109	138.59
712.484	137.9
715.859	127.235
719.234	112.832
722.609	92.6414
725.984	72.7762
729.358	50.7443
732.733	27.1763
736.108	5.94904
739.483	8.76825
742.858	27.4358
746.232	29.8464
749.607	32.0338
752.982	23.4803
756.357	7.32416
759.732	31.6568
763.107	93.018
766.481	215.371
769.856	400.33
773.231	691.493
776.606	1085.06
779.981	1564.55
783.356	1869.3
786.73	1651.24
790.105	1113.76
793.48	695.321
796.855	482.466
800.23	415.043
803.604	490.172
806.979	786.696
810.354	1599.58
813.729	3090.85
817.104	5141.01
820.479	8889.26
823.853	13289.8
827.228	11332.2
830.603	7145.82
833.978	6578.91
837.353	7286.68
840.727	7569.3
844.102	6228.05
847.477	4264.59
850.852	2914.32
854.227	2171.09
857.601	1774.15
860.976	1535.1
864.351	1341.8
867.726	1101.33
871.101	810.103
874.476	552.507
877.851	367.99
881.225	259.62
884.6	199.211
887.975	135.641
891.35	57.7259
894.725	13.378
898.099	8.89282
901.474	19.315
904.849	18.6385
908.224	18.6258
911.599	16.4141
914.973	16.8442
918.348	8.14352
921.723	2.29764
925.098	3.63577
928.473	16.3834
931.847	23.7366
935.222	28.1193
938.597	31.2491
941.972	37.0498
945.347	50.1276
948.722	54.4988
952.096	64.3421
955.471	67.2485
958.846	73.9031
962.221	83.8427
965.596	76.4812
968.971	75.0641
972.345	68.3489
975.72	62.836
979.095	58.9808
982.47	49.3879
985.845	43.4357
989.22	35.9282
992.594	33.1142
995.969	28.6124
999.344	25.9734
1002.72	21.6903
1006.09	23.6598
1009.47	22.5681
1012.84	19.8698
1016.22	19.254
1019.59	13.7914
1022.97	14.2337
1026.34	11.4975
1029.72	13.5682
1033.09	10.0814
1036.47	9.71539
1039.84	11.197
1043.22	6.17377
1046.59	8.5871
1049.97	9.19345
1053.34	8.92941
1056.72	8.15228
1060.09	6.51105
1063.47	4.33993
1066.84	6.62869
1070.21	4.62167
1073.59	5.93384
1076.96	1.77216
1080.34	4.13419
1083.71	3.80093
1087.09	1.96973
1090.46	7.81134
1093.84	1.17877
1097.21	1.68131
1100.59	1.03976
1103.96	2.50076
1107.34	7.13379
1110.71	1.42093
1114.09	0.284332
1117.46	1.86768
1120.84	0.682678
1124.21	0.590363
1127.59	3.53973
1130.96	3.42645
1134.34	1.12234
1137.71	1.24972
1141.09	0.414154
1144.46	0.647919
1147.84	4.05478
1151.21	0.095459
1154.59	0.643799
1157.96	0.639557
1161.34	3.55158
1164.71	2.49731
1168.09	2.06683
1171.46	2.49506
1174.84	3.42398
1178.21	5.98731
1181.58	2.87448
1184.96	1.68439
1188.33	4.58392
1191.71	2.42337
1195.08	1.58423
1198.46	2.26718
1201.83	3.88287
1205.21	6.38568
1208.58	3.87073
1211.96	3.46405
1215.33	2.88904
1218.71	3.02884
1222.08	1.43616
1225.46	4.84647
1228.83	3.74149
1232.21	4.56833
1235.58	2.59815
1238.96	2.29645
1242.33	0.16684
1245.71	2.74231
1249.08	0.42276
1252.45	1.27521
1255.83	2.9443
1259.2	1.04629
1262.58	3.55881
1265.95	1.53097
1269.33	3.79547
1272.7	2.36716
1276.08	2.63815
1279.45	3.51663
1282.83	0.969543
1286.2	1.92377
1289.58	2.47
1292.95	5.66486
1296.33	2.51807
1299.7	0.054108
