Measurement: Raman, 780 nm, unoriented, Raman Data Processed
Mineral: Zincite
Rruff sample: R060027
Ideal chemistry: ZnO
Locality: synthetic
Source: Jacque Reynard, Greg Schmidt
Description: Colorless prismatic crystal
Measured chemistry: Zn_1.00_O
Raman shift (cm-1)	intensity
110.362	0
113.737	0.093246
117.112	0.855141
120.486	0.870426
123.861	1.51734
127.236	2.02492
130.611	2.63865
133.986	1.43969
137.361	1.03472
140.735	0.292953
144.11	0.119152
147.485	1.45045
150.86	0.516462
154.235	0.004524
157.609	1.61866
160.984	0.021427
164.359	0.936695
167.734	3.94703
171.109	3.33733
174.483	4.9337
177.858	7.69438
181.233	10.4445
184.608	16.3777
187.983	18.1972
191.358	22.7403
194.732	29.0424
198.107	38.9793
201.482	55.0736
204.857	53.073
208.232	45.1712
211.607	39.2149
214.981	33.1942
218.356	28.9881
221.731	25.4129
225.106	23.8739
228.481	21.0641
231.855	18.5633
235.23	16.3052
238.605	14.0376
241.98	12.3765
245.355	10.1655
248.729	8.35055
252.104	7.04384
255.479	5.85152
258.854	5.24699
262.229	4.51988
265.603	3.773
268.978	3.60982
272.353	3.52822
275.728	3.1999
279.103	2.35149
282.478	1.79396
285.852	0.542206
289.227	1.81401
292.602	2.25631
295.977	2.17819
299.352	0.752525
302.726	1.98672
306.101	7.99043
309.476	15.4384
312.851	25.9755
316.226	38.9131
319.601	50.8023
322.975	62.7815
326.35	83.3379
329.725	100.419
333.1	99.0779
336.475	67.8494
339.849	38.0431
343.224	25.0203
346.599	19.7375
349.974	18.3529
353.349	23.1224
356.724	33.5423
360.098	47.9916
363.473	66.5243
366.848	97.6707
370.223	149.003
373.598	234.412
376.972	294.274
380.347	219.764
383.722	118.207
387.097	62.1236
390.472	35.4518
393.846	23.7436
397.221	20.0978
400.596	24.4846
403.971	30.5324
407.346	34.9675
410.721	33.4782
414.095	24.1501
417.47	13.7434
420.845	9.36869
424.22	8.24422
427.595	8.87127
430.969	11.6614
434.344	20.2104
437.719	28.6733
441.094	12.2124
444.469	0.175972
447.844	2.1329
451.218	2.08641
454.593	1.21412
457.968	0.795664
461.343	0.084654
464.718	0.548454
468.092	1.34877
471.467	2.26869
474.842	3.45702
478.217	4.51277
481.592	5.16409
484.966	6.59499
488.341	7.10835
491.716	7.25063
495.091	8.19442
498.466	8.56087
501.841	9.16776
505.215	9.63354
508.59	10.0805
511.965	9.86113
515.34	10.8254
518.715	11.5112
522.09	13.3667
525.464	16.236
528.839	19.7793
532.214	24.5664
535.589	29.6171
538.964	30.6457
542.338	26.1056
545.713	22.235
549.088	18.7335
552.463	15.6042
555.838	14.1935
559.212	12.1978
562.587	9.97698
565.962	8.18449
569.337	6.209
572.712	4.84603
576.087	3.26381
579.461	2.42476
582.836	1.16262
586.211	0.387917
589.586	0.332535
592.961	0.265881
596.335	0.005222
599.71	0.475739
603.085	0.433113
606.46	0.358791
609.835	0.990299
613.21	0.137405
616.584	0.896557
619.959	1.2626
623.334	1.19516
626.709	1.4412
630.084	2.13054
633.458	2.79697
636.833	3.85872
640.208	4.98324
643.583	6.53449
646.958	7.64002
650.332	9.36334
653.707	10.6523
657.082	11.9175
660.457	12.92
663.832	13.7506
667.207	13.368
670.581	12.2554
673.956	11.0114
677.331	9.21625
680.706	8.92506
684.081	8.04314
687.455	7.20227
690.83	6.46765
694.205	6.45913
697.58	6.68832
700.955	6.06322
704.33	3.78365
707.704	2.38614
711.079	1.40377
714.454	1.3572
717.829	1.6105
721.204	1.91227
724.578	1.52207
727.953	0.516388
731.328	0.194044
734.703	0.082178
738.078	0.117352
741.452	0.039776
744.827	0.052645
748.202	0.03134
751.577	0.230119
754.952	0.028887
758.327	0.193621
761.701	0.961987
765.076	1.71625
768.451	2.47172
771.826	3.25619
775.201	3.75882
778.575	4.20671
781.95	4.79666
785.325	5.20523
788.7	5.214
792.075	5.34542
795.449	5.33089
798.824	4.99957
802.199	4.91604
805.574	5.14742
808.949	5.04193
812.324	5.12778
815.698	3.56549
819.073	1.82804
822.448	1.21343
825.823	1.08163
829.198	0.589219
832.572	0.645083
835.947	0.68355
839.322	0.656157
842.697	1.15775
846.072	0.893192
849.447	0.814312
852.821	1.00217
856.196	1.29389
859.571	1.1239
862.946	1.17203
866.321	1.09426
869.696	1.30174
873.07	1.09875
876.445	1.15107
879.82	0.844861
883.195	0.842883
886.569	1.13726
889.944	0.554122
893.319	0.516762
896.694	0.305376
900.069	0.357937
903.444	0.048433
906.818	0.037793
910.193	0.018446
913.568	0.248693
916.943	0.055934
920.318	0.026478
923.692	0.043174
927.067	0.047743
930.442	0.016941
933.817	0.188079
937.192	0.431774
940.567	0.464505
943.941	0.653732
947.316	0.757239
950.691	1.01357
954.066	1.64928
957.441	1.56035
960.816	1.85241
964.19	2.07204
967.565	3.23345
970.94	4.44342
974.315	5.07962
977.69	6.11493
981.064	5.66606
984.439	5.54768
987.814	4.7004
991.189	3.7572
994.564	3.17739
997.938	2.72226
1001.31	2.06337
1004.69	1.95258
1008.06	1.88868
1011.44	1.58108
1014.81	1.55923
1018.19	1.09324
1021.56	0.449929
1024.94	1.14298
1028.31	1.60508
1031.69	1.14013
1035.06	0.264965
1038.44	2.16963
1041.81	2.86401
1045.19	4.33174
1048.56	5.41147
1051.94	6.73746
1055.31	8.54118
1058.68	10.3819
1062.06	12.86
1065.43	14.8498
1068.81	17.4411
1072.18	19.3804
1075.56	21.0551
1078.93	22.2121
1082.31	23.7547
1085.68	23.822
1089.06	24.031
1092.43	24.9763
1095.81	25.7729
1099.18	26.6083
1102.56	26.4952
1105.93	25.9272
1109.31	24.9239
1112.68	24.3653
1116.06	23.7755
1119.43	24.4038
1122.81	24.4944
1126.18	24.8574
1129.56	25.5152
1132.93	26.0457
1136.31	25.9828
1139.68	27.2773
1143.06	27.4849
1146.43	27.3412
1149.81	26.3906
1153.18	24.4477
1156.56	21.622
1159.93	18.5438
1163.3	15.74
1166.68	12.3229
1170.05	9.01243
1173.43	6.39522
1176.8	4.16515
1180.18	2.08913
1183.55	1.06871
1186.93	0.042568
1190.3	0.177987
1193.68	0.530446
1197.05	0.612942
1200.43	0.471006
1203.8	0.392765
1207.18	0.471292
1210.55	0.164511
1213.93	0.262762
1217.3	0.23105
1220.68	0.637639
1224.05	0.498662
1227.43	0.833737
1230.8	0.997936
1234.18	1.6477
1237.55	1.94523
1240.92	2.1637
1244.3	1.69341
1247.67	1.54931
1251.05	1.25037
1254.42	1.00792
1257.8	0.89981
1261.17	0.717822
1264.55	0.813278
1267.92	0.462082
1271.3	0.437099
1274.67	0.341502
1278.05	0.233555
1281.42	0.137805
1284.8	0.005847
