Measurement: Raman, 785 nm, unoriented, Raman Data Processed
Mineral: Zincolibethenite
Rruff sample: R060763
Ideal chemistry: CuZnPO_4_OH
Locality: Kabwe mine, Kabwe, Zambia
Source: Michael Scott
Description: Pale greenish-blue botryoidal groups, associated with colorless tarbuttite
Raman shift (cm-1)	intensity
100.315	0
103.207	24.1173
106.1	24.0418
108.993	32.8573
111.885	77.1724
114.778	47.5704
117.671	20.1951
120.563	6.37389
123.456	9.20491
126.349	114.186
129.242	214.196
132.134	423.083
135.027	743.954
137.92	702.274
140.812	160.814
143.705	167.656
146.598	327.023
149.49	447.703
152.383	691.956
155.276	539.36
158.169	221.493
161.061	177.208
163.954	266.832
166.847	433.928
169.739	769.252
172.632	1296.74
175.525	1912.7
178.417	2477.05
181.31	2185.63
184.203	1403.58
187.096	1122.92
189.988	1281.34
192.881	1530.91
195.774	1582.73
198.666	1193.24
201.559	806.432
204.452	576.147
207.344	559.062
210.237	578.047
213.13	429.751
216.023	214.033
218.915	56.8735
221.808	6.88306
224.701	17.2622
227.593	26.2899
230.486	56.8311
233.379	13.3901
236.271	86.1418
239.164	238.221
242.057	503.153
244.95	943.572
247.842	1643.78
250.735	2491.08
253.628	3271
256.52	3313.64
259.413	3454.23
262.306	4706.51
265.198	6685.82
268.091	7199.24
270.984	4901.09
273.877	2639.25
276.769	1465.82
279.662	966.278
282.555	711.538
285.447	555.972
288.34	500.857
291.233	577.53
294.125	735.602
297.018	889.91
299.911	958.055
302.804	828.708
305.696	506.074
308.589	229.754
311.482	86.7727
314.374	6.43543
317.267	8.72449
320.16	30.0328
323.052	152.637
325.945	434.317
328.838	850.583
331.731	1414.96
334.623	1911.92
337.516	2015.94
340.409	1643.63
343.301	1058.11
346.194	666.758
349.087	407.308
351.979	232.041
354.872	87.9995
357.765	20.7527
360.658	4.15662
363.55	14.122
366.443	59.3434
369.336	163.928
372.228	362.98
375.121	693.335
378.014	1091.31
380.906	1349.5
383.799	1139.59
386.692	666.548
389.585	330.095
392.477	162.181
395.37	56.1215
398.263	55.264
401.155	5.3205
404.048	12.5488
406.941	22.6925
409.833	31.2761
412.726	17.1611
415.619	19.279
418.512	5.54102
421.404	0.162811
424.297	34.1096
427.19	53.1814
430.082	68.5378
432.975	107.268
435.868	139.481
438.76	162.746
441.653	239.087
444.546	363.7
447.439	528.13
450.331	788.504
453.224	1203.52
456.117	1748.74
459.009	2269.51
461.902	2372.45
464.795	1777.67
467.687	1050.93
470.58	611.286
473.473	410.608
476.366	255.563
479.258	152.733
482.151	120.368
485.044	92.087
487.936	97.2075
490.829	85.7313
493.722	95.0955
496.614	123.164
499.507	178.421
502.4	226.63
505.293	315.259
508.185	460.953
511.078	568.611
513.971	639.989
516.863	597.117
519.756	486.846
522.649	346.884
525.541	217.94
528.434	149.74
531.327	96.0303
534.219	28.2864
537.112	21.9197
540.005	17.3279
542.898	25.7819
545.79	1.74081
548.683	2.11026
551.576	17.4003
554.468	10.4812
557.361	20.9821
560.254	36.9158
563.146	16.5103
566.039	24.7425
568.932	44.9959
571.825	83.9465
574.717	124.729
577.61	168.408
580.503	240.234
583.395	399.885
586.288	691.148
589.181	1266.75
592.073	2007.41
594.966	2872.84
597.859	3143.23
600.752	2475.06
603.644	2110.53
606.537	1950.79
609.43	1561.97
612.322	1049.91
615.215	641.13
618.108	403.323
621	304.366
623.893	213.412
626.786	160.291
629.679	100.196
632.571	101.306
635.464	94.6106
638.357	71.8191
641.25	65.8111
644.142	55.5863
647.035	33.1215
649.928	24.0314
652.82	26.546
655.713	16.5818
658.606	9.12833
661.498	9.1763
664.391	14.7299
667.284	20.996
670.177	10.38
673.069	22.1479
675.962	26.1545
678.855	10.5739
681.747	16.5967
684.64	12.9315
687.533	17.2612
690.425	4.91418
693.318	26.882
696.211	3.22943
699.104	13.3893
701.996	39.2401
704.889	15.3069
707.782	44.6276
710.674	29.8214
713.567	58.7902
716.46	47.4812
719.352	41.8619
722.245	36.5526
725.138	53.7008
728.031	28.3749
730.923	37.7841
733.816	13.3686
736.709	5.9816
739.601	17.0993
742.494	26.8567
745.387	1.79337
748.279	17.232
751.172	36.6516
754.065	6.8779
756.958	10.2722
759.85	44.934
762.743	10.5159
765.636	11.8869
768.528	10.7682
771.421	20.1297
774.314	33.5438
777.206	35.3193
780.099	81.8567
782.992	90.4682
785.885	193.485
788.777	314.211
791.67	456.255
794.563	636.001
797.455	872.859
800.348	910.565
803.241	783.848
806.133	536.235
809.026	370.656
811.919	199.792
814.812	104.558
817.704	69.5876
820.597	9.10974
823.49	15.2074
826.382	18.1402
829.275	3.72623
832.168	33.0228
835.06	46.4197
837.953	90.6022
840.846	65.6356
843.738	15.1258
846.631	1.36667
849.524	16.2251
852.417	55.2709
855.309	130.928
858.202	165.82
861.095	161.395
863.987	101.698
866.88	107.479
869.773	101.178
872.665	154.572
875.558	185.048
878.451	290.463
881.344	369.961
884.236	416.354
887.129	339.748
890.022	255.504
892.914	166.485
895.807	122.136
898.7	57.2853
901.592	21.6388
904.485	12.0307
907.378	16.9586
910.271	39.8512
913.163	5.72424
916.056	18.078
918.949	10.1311
921.841	1.64862
924.734	22.5427
927.627	61.3672
930.519	113.908
933.412	178.265
936.305	229.135
939.198	309.092
942.09	441.737
944.983	605.699
947.876	867.779
950.768	1396.86
953.661	2291.95
956.554	3928.24
959.446	6904.84
962.339	10902.6
965.232	13206.2
968.125	10364.9
971.017	5716.79
973.91	3178.57
976.803	1789.6
979.695	1077.51
982.588	629.764
985.481	391.489
988.373	225.844
991.266	143.22
994.159	100.197
997.052	157.073
999.944	355.262
1002.84	868.643
1005.73	2406.06
1008.62	5500.74
1011.51	8630
1014.41	4589.73
1017.3	1266.43
1020.19	462.668
1023.09	155.674
1025.98	10.1533
1028.87	20.4939
1031.76	24.7649
1034.66	2.92883
1037.55	26.4217
1040.44	138.966
1043.34	372.131
1046.23	841.485
1049.12	1416.72
1052.01	1491.34
1054.91	968.115
1057.8	965.164
1060.69	1502.98
1063.58	2581.82
1066.48	3831.64
1069.37	3923.55
1072.26	2314.3
1075.15	1098.31
1078.05	512.737
1080.94	290.589
1083.83	156.238
1086.72	102.081
1089.62	55.4123
1092.51	37.0254
1095.4	6.40008
1098.3	4.18936
1101.19	7.52713
1104.08	3.22922
1106.97	8.67343
1109.87	3.93451
1112.76	15.4455
1115.65	12.8986
1118.55	4.09607
1121.44	31.6278
1124.33	23.6223
1127.22	32.9586
1130.12	3.01028
1133.01	40.4429
1135.9	36.7797
1138.79	47.4167
1141.69	51.1227
1144.58	14.8625
1147.47	45.8145
1150.37	58.9433
1153.26	45.5681
1156.15	97.7306
1159.04	82.7741
1161.93	85.0625
1164.83	90.3333
1167.72	108.269
1170.61	115.232
1173.51	85.0808
1176.4	77.4871
1179.29	72.9678
1182.18	83.8965
1185.08	69.9144
1187.97	68.8796
1190.86	67.388
1193.76	52.0605
1196.65	35.8916
1199.54	19.5015
1202.43	29.4127
1205.33	23.1219
1208.22	0.216949
1211.11	25.5978
1214	35.5771
1216.9	40.5988
1219.79	18.7399
1222.68	0
