Measurement: Raman, 532 nm, unoriented, Raman Data Processed
Mineral: Zincolibethenite
Rruff sample: R060763
Ideal chemistry: CuZnPO_4_OH
Locality: Kabwe mine, Kabwe, Zambia
Source: Michael Scott
Description: Pale greenish-blue botryoidal groups, associated with colorless tarbuttite
Raman shift (cm-1)	intensity
95.006	0
98.381	11.946
101.756	30.731
105.131	44.501
108.506	7.933
111.88	188.023
115.255	195.064
118.63	363.709
122.005	711.61
125.38	1233.41
128.755	1518.24
132.129	1862.49
135.504	3440.56
138.879	2416.45
142.254	1223.23
145.629	1322.1
149.003	1234.14
152.378	1266.57
155.753	1129.88
159.128	686.626
162.503	687.98
165.877	745.744
169.252	1028.14
172.627	1399.49
176.002	1968.24
179.377	2307.64
182.751	1724.71
186.126	1407.37
189.501	1644.96
192.876	2051
196.251	2243.09
199.626	1860.18
203	1691.95
206.375	1882.26
209.75	2345.62
213.125	2219.84
216.5	1474.91
219.874	1044.11
223.249	805.386
226.624	646.9
229.999	604.337
233.374	705.111
236.749	782.713
240.123	1083.19
243.498	1690.71
246.873	2724.32
250.248	4108.7
253.623	5835.69
256.997	6021.18
260.372	6231.89
263.747	8303.5
267.122	11051.8
270.497	8665.72
273.871	4372.27
277.246	2652.18
280.621	1965.16
283.996	1765.6
287.371	1808.95
290.746	1892.96
294.12	1920.57
297.495	1865.88
300.87	1691.54
304.245	1307.13
307.62	876.463
310.994	516.209
314.369	379.839
317.744	335.205
321.119	412.745
324.494	624.374
327.868	1089.51
331.243	1604.66
334.618	2253.92
337.993	2516.05
341.368	2140.02
344.743	1594.87
348.117	1301
351.492	985.79
354.867	663.686
358.242	444.664
361.617	319.845
364.991	315.738
368.366	419.578
371.741	697.731
375.116	1110.4
378.491	1644.11
381.866	1949.69
385.24	1381.64
388.615	650.11
391.99	315.914
395.365	72.057
398.74	8.001
402.114	84.103
405.489	53.696
408.864	56.284
412.239	89.688
415.614	99.339
418.988	86.627
422.363	13.814
425.738	21.503
429.113	41.273
432.488	116.077
435.863	199.138
439.237	295.385
442.612	487.933
445.987	898.455
449.362	1435.86
452.737	2339.16
456.112	3450.53
459.486	4714.54
462.861	4765.3
466.236	3030.7
469.611	1622.3
472.986	930.698
476.36	572.408
479.735	411.092
483.11	295.667
486.485	207.138
489.86	204.951
493.234	246.552
496.609	324.479
499.984	502.4
503.359	731.911
506.734	1070.68
510.108	1484.66
513.483	1843.06
516.858	1829.78
520.233	1447.14
523.608	957.308
526.983	613.047
530.357	414.661
533.732	283.356
537.107	232.527
540.482	203.443
543.857	260.338
547.231	244.052
550.606	256.463
553.981	279.656
557.356	295.723
560.731	416.515
564.106	443.642
567.48	395.494
570.855	435.114
574.23	474.329
577.605	524.376
580.98	722.093
584.354	1129.09
587.729	1801.94
591.104	2859.5
594.479	4306.08
597.854	5071.2
601.229	3923
604.603	3560.32
607.978	3370.22
611.353	2351.24
614.728	1369.41
618.103	934.084
621.477	586.656
624.852	423.194
628.227	325.239
631.602	203.478
634.977	173.084
638.351	145.43
641.726	122.571
645.101	66.65
648.476	43.094
651.851	1.156
655.226	3.28
658.6	9.31
661.975	19.504
665.35	23.465
668.725	36.703
672.1	18.945
675.474	79.237
678.849	36.769
682.224	23.09
685.599	14.266
688.974	37.519
692.349	17.966
695.723	17.168
699.098	48.954
702.473	40.831
705.848	38.673
709.222	55.811
712.597	32.143
715.972	40.51
719.347	9.423
722.722	29.592
726.097	2.829
729.471	20.911
732.846	1.082
736.221	5.461
739.596	18.077
742.971	32.297
746.346	8.973
749.72	21.831
753.095	19.679
756.47	18.236
759.845	42.802
763.22	8.721
766.594	5.057
769.969	4.577
773.344	58.118
776.719	91.209
780.094	151.107
783.468	340.804
786.843	534.415
790.218	840.35
793.593	1366.14
796.968	1960.87
800.343	2363.95
803.717	1946.45
807.092	1149.06
810.467	613.15
813.842	322.565
817.217	158.925
820.591	89.172
823.966	72.729
827.341	44.625
830.716	70.081
834.091	130.256
837.466	198.23
840.84	179.217
844.215	160.617
847.59	117.443
850.965	143.098
854.34	194.103
857.714	307.48
861.089	386.875
864.464	306.301
867.839	297.61
871.214	483.128
874.588	727.942
877.963	1108.39
881.338	1510.69
884.713	1674.32
888.088	1424.38
891.463	938.79
894.837	613.164
898.212	331.732
901.587	205.056
904.962	114.558
908.337	78.048
911.711	74.595
915.086	74.293
918.461	42.155
921.836	99.301
925.211	177.88
928.586	229.448
931.96	430.573
935.335	617.37
938.71	878.289
942.085	1258.79
945.46	1886.23
948.834	2954.91
952.209	5011.36
955.584	8658.46
958.959	14361.7
962.334	22164.2
965.708	26836.1
969.083	18750.4
972.458	9960.03
975.833	5874.54
979.208	3608.88
982.583	2251.08
985.957	1406.16
989.332	950.3
992.707	705.371
996.082	672.011
999.457	1254.07
1002.83	1867.03
1006.21	3479.77
1009.58	6753.02
1012.96	9155.41
1016.33	2798.71
1019.71	1381.45
1023.08	1034.54
1026.45	806.368
1029.83	751.518
1033.2	772.486
1036.58	733.076
1039.95	1051.25
1043.33	1730.89
1046.7	2868.45
1050.08	4698.94
1053.45	3919.61
1056.83	2366.1
1060.2	2558.38
1063.58	3508.75
1066.95	5051.41
1070.33	4605.96
1073.7	2065.83
1077.08	876.836
1080.45	387.51
1083.83	216.41
1087.2	121.753
1090.58	56.204
1093.95	25.642
1097.33	13.98
1100.7	41.029
1104.08	24.938
1107.45	19.109
1110.83	72.109
1114.2	51.293
1117.58	17.887
1120.95	6.093
1124.33	31.459
1127.7	92.954
1131.07	83.28
1134.45	77.875
1137.82	10.533
1141.2	36.214
1144.57	6.379
1147.95	62.521
1151.32	63.191
1154.7	33.923
1158.07	57.146
1161.45	66.971
1164.82	36.644
1168.2	39.961
1171.57	44.601
1174.95	64.093
1178.32	74.915
1181.7	51.854
1185.07	62.09
1188.45	17.902
1191.82	62.404
1195.2	57.449
1198.57	80.176
1201.94	29.922
1205.32	35.125
1208.69	110.23
1212.07	82.086
1215.44	101.243
1218.82	48.474
1222.19	85.396
1225.57	52.724
1228.94	55.849
1232.32	56.771
1235.69	61.98
1239.07	83.589
1242.44	81.753
1245.82	101.282
1249.19	69.667
1252.57	85.768
1255.94	73.188
1259.32	69.169
1262.69	12.212
1266.07	0.199
1269.44	29.889
1272.82	32.776
1276.19	10.233
1279.57	17.073
1282.94	39.42
1286.32	36.188
1289.69	46.77
1293.07	26.948
1296.44	7.872
1299.82	37.3
