Measurement: Raman, 780 nm, unoriented, Raman Data Processed
Mineral: Zincite
Rruff sample: R050419
Ideal chemistry: ZnO
Locality: Sterling Hill, Sussex County, New Jersey, USA
Source: Marcus Origlieri
Description: Deep red crystal associated with calcite
Measured chemistry: (Zn_0.99_Mn_0.01_)O
Raman shift (cm-1)	intensity
140.549	0
143.441	0.003216
146.334	0.290024
149.227	0.169468
152.119	0.396301
155.012	0.076256
157.905	0.010178
160.798	0.054459
163.69	0.515514
166.583	0.255577
169.476	0.355843
172.368	0.118042
175.261	0.879128
178.154	0.647198
181.046	1.5994
183.939	1.35911
186.832	0.910275
189.725	1.02455
192.617	1.23672
195.51	1.7688
198.403	1.77249
201.295	1.80081
204.188	2.18084
207.081	2.35513
209.973	2.56037
212.866	2.26744
215.759	1.74433
218.651	1.56335
221.544	1.66101
224.437	1.91949
227.33	1.70948
230.222	1.66395
233.115	1.84635
236.008	1.55077
238.9	1.76216
241.793	1.37342
244.686	2.04242
247.578	1.25409
250.471	0.937243
253.364	0.845774
256.257	0.724039
259.149	1.04571
262.042	0.28187
264.935	0.339134
267.827	0.200436
270.72	0.490196
273.613	0.030783
276.506	0.160101
279.398	0.184576
282.291	0.456192
285.184	0.780582
288.076	0.18961
290.969	0.74193
293.862	0.941355
296.755	0.681446
299.647	1.21756
302.54	1.94147
305.433	2.0621
308.325	3.51033
311.218	4.63468
314.111	5.19097
317.003	7.02019
319.896	8.13062
322.789	10.5813
325.682	13.336
328.574	15.078
331.467	15.4165
334.36	13.3048
337.252	10.6883
340.145	8.15533
343.038	7.31114
345.93	6.22511
348.823	5.03248
351.716	3.33779
354.608	2.42654
357.501	1.75795
360.394	1.37341
363.287	0.710718
366.179	0.968103
369.072	0.328407
371.965	0.098129
374.857	0.226696
377.75	0.213018
380.643	0.200573
383.536	0.200926
386.428	0.004333
389.321	0.415346
392.214	0.35195
395.106	0.277264
397.999	0.473391
400.892	1.61756
403.784	3.00422
406.677	4.52571
409.57	6.74956
412.462	9.53326
415.355	14.0822
418.248	21.0885
421.141	29.3426
424.033	39.2812
426.926	51.7616
429.819	68.9815
432.712	92.3531
435.604	113.626
438.497	95.0593
441.39	46.3656
444.282	20.9857
447.175	11.6594
450.068	8.02045
452.96	5.54349
455.853	4.21481
458.746	3.40161
461.639	3.3113
464.531	2.81678
467.424	2.28098
470.317	2.1443
473.209	1.56402
476.102	1.82014
478.995	1.096
481.887	1.08879
484.78	0.589502
487.673	0.978882
490.565	0.181532
493.458	0.338591
496.351	0.393007
499.244	0.045649
502.136	0.611969
505.029	2.76156
507.922	5.67404
510.814	11.1055
513.707	18.3947
516.6	23.3229
519.492	24.7628
522.385	24.8357
525.278	23.6122
528.171	22.5395
531.063	20.3265
533.956	17.9388
536.849	15.8065
539.741	13.887
542.634	11.8874
545.527	10.1684
548.42	8.71314
551.312	6.26888
554.205	4.36786
557.098	3.29754
559.99	2.6675
562.883	2.10976
565.776	1.80834
568.668	1.20795
571.561	0.714554
574.454	0.369337
577.347	0.086155
580.239	0.058867
583.132	0.12261
586.025	0.071587
588.917	0.223263
591.81	0.158812
594.703	0.256954
597.596	0.203163
600.488	0.058338
603.381	0.045326
606.274	0.680336
609.166	1.18813
612.059	1.0201
614.952	1.53836
617.844	1.73689
620.737	2.32092
623.63	1.85822
626.523	2.58187
629.415	2.48194
632.308	2.66897
635.201	2.82065
638.093	3.20861
640.986	3.80585
643.879	4.24051
646.771	4.33098
649.664	4.5478
652.557	4.87368
655.449	5.04383
658.342	4.59539
661.235	3.94906
664.128	3.70091
667.02	3.13103
669.913	2.45422
672.806	2.15207
675.698	1.36072
678.591	0.990522
681.484	0.355371
684.376	0.473065
687.269	0.037764
690.162	0.325987
693.055	0.259812
695.947	0.167786
698.84	0.238729
701.733	0.138047
704.625	0.072239
707.518	0.480152
710.411	0.028512
713.303	0.343112
716.196	0.367096
719.089	0.504312
721.982	0.419122
724.874	0.462297
727.767	0.078926
730.66	0.133666
733.552	0.284087
736.445	0.211816
739.338	0.389333
742.231	0.27189
745.123	0.015127
748.016	0.246095
750.909	0.267351
753.801	0.609947
756.694	0.642203
759.587	0.854813
762.48	0.762323
765.372	0.434056
768.265	0.959932
771.158	1.17968
774.05	1.04971
776.943	1.0418
779.836	0.922347
782.728	1.21403
785.621	1.33743
788.514	1.13814
791.407	0.931122
794.299	0.777312
797.192	0.767846
800.085	0.834462
802.977	0.800683
805.87	0.799416
808.763	0.777625
811.655	0.404433
814.548	0.717668
817.441	0.442695
820.333	0.659163
823.226	0.322799
826.119	0.514665
829.012	0.415066
831.904	0.274793
834.797	0.605587
837.69	0.792289
840.582	0.501374
843.475	0.475046
846.368	0.522558
849.261	0.492719
852.153	0.43004
855.046	0.121346
857.939	0.611878
860.831	0.45597
863.724	0.779584
866.617	0.433747
869.51	0.572792
872.402	0.665907
875.295	0.402358
878.188	0.473266
881.08	0.118092
883.973	0.366311
886.866	0.394307
889.758	0.430695
892.651	0.265023
895.544	0.384078
898.437	0.294868
901.329	0.251407
904.222	0.123838
907.115	0.084873
910.007	0.04556
912.9	0.106269
915.793	0.140214
918.685	0.136213
921.578	0.214613
924.471	0.362762
927.364	0.027208
930.256	0.051073
933.149	0.312198
936.042	0.14151
938.934	0.086004
941.827	0.290326
944.72	0.233915
947.612	0.382162
950.505	0.117332
953.398	0.380803
956.29	0.318446
959.183	0.590741
962.076	0.473113
964.969	0.461331
967.861	0.433311
970.754	0.462917
973.647	0.393454
976.539	0.275314
979.432	0.355905
982.325	0.689886
985.217	0.465174
988.11	0.29693
991.003	0.227578
993.896	0.119658
996.788	0.454255
999.681	0.423625
1002.57	0.197587
1005.47	0.003448
1008.36	0.113108
1011.25	0.25137
1014.14	0.005677
1017.04	0.049312
1019.93	0.260433
1022.82	0.170602
1025.71	0.077415
1028.61	0.345875
1031.5	0.600032
1034.39	0.799523
1037.29	1.06987
1040.18	1.24846
1043.07	1.05642
1045.96	1.4423
1048.86	1.2218
1051.75	1.63172
1054.64	1.72721
1057.54	1.87829
1060.43	2.04568
1063.32	2.1
1066.21	2.42826
1069.11	2.10455
1072	2.5755
1074.89	2.64993
1077.78	2.86226
1080.68	2.96251
1083.57	2.96162
1086.46	3.04908
1089.36	3.51398
1092.25	3.44477
1095.14	3.51288
1098.03	3.36407
1100.93	3.69989
1103.82	3.93715
1106.71	3.1041
1109.6	3.03691
1112.5	2.78091
1115.39	2.73339
1118.28	2.67504
1121.17	2.71551
1124.07	2.79276
1126.96	2.61104
1129.85	3.12404
1132.74	3.07397
1135.64	3.24814
1138.53	3.36978
1141.42	3.51647
1144.32	3.77344
1147.21	3.46363
1150.1	3.70302
1152.99	3.82175
1155.89	3.68322
1158.78	3.22189
1161.67	3.31431
1164.57	3.02519
1167.46	2.54988
1170.35	2.00131
1173.24	1.78428
1176.14	1.4961
1179.03	1.04746
1181.92	0.743854
1184.81	0.641307
1187.71	0.20707
1190.6	0.283865
1193.49	0.060231
1196.38	0.063082
1199.28	0.033373
1202.17	0.092198
1205.06	0.290114
1207.96	0.210281
1210.85	0.210128
1213.74	0.172518
1216.63	0.08198
1219.53	0.006492
1222.42	0.081673
1225.31	0.420918
1228.2	0.181191
1231.1	0.04712
1233.99	0.578473
1236.88	0.608739
1239.78	0.489422
1242.67	0.602746
1245.56	0.330127
1248.45	0.225593
1251.35	0.279948
1254.24	0.316337
1257.13	0.228314
1260.02	0.463957
1262.92	0.486131
1265.81	0.191066
1268.7	0.370618
1271.6	0.246362
1274.49	0.368809
1277.38	0.178966
1280.27	0.215784
1283.17	0.174214
1286.06	0.381779
