Measurement: Raman, 780 nm, unoriented, Raman Data Processed
Mineral: Zinkenite
Rruff sample: R060186
Ideal chemistry: Pb_9_Sb_22_S_42_
Locality: Llallagua, Potosi Department, Bolivia
Source: Lloyd Twaites
Description: Lead-gray metallic foliated fragment intimately associated with stibnite
Measured chemistry: lighter phase: (Pb_8.84_Cu_0.16_)_Σ=9_(Sb_21.92_As_0.08_)_Σ=22_S_42.00_ ; darker phase: Sb_2.00_S_3.00_
Raman shift (cm-1)	intensity
125.291	0
128.666	98.3403
132.041	77.5035
135.416	5.58704
138.791	0.416321
142.166	3.36353
145.54	24.8557
148.915	78.3016
152.29	184.105
155.665	317.122
159.04	209.876
162.414	0.959473
165.789	62.7571
169.164	6.11365
172.539	108.797
175.914	266.23
179.288	453.209
182.663	672.903
186.038	904.068
189.413	1131.41
192.788	1191.91
196.162	1043.01
199.537	852.218
202.912	718.383
206.287	594.135
209.662	463.945
213.037	357.977
216.411	297.973
219.786	325.493
223.161	418.672
226.536	566.689
229.911	760.015
233.286	977.5
236.66	1147
240.035	1125.47
243.41	885.352
246.785	610.304
250.16	447.004
253.534	399.868
256.909	457.137
260.284	615.044
263.659	905.726
267.034	1296.59
270.408	1792.97
273.783	2458.24
277.158	3267.58
280.533	4019.92
283.908	4012.83
287.283	3103.56
290.657	2301.76
294.032	2106.83
297.407	2276.83
300.782	2510.86
304.157	2770.42
307.531	3009.75
310.906	3252.4
314.281	2620.1
317.656	944.981
321.031	201.704
324.406	10.5706
327.78	41.1155
331.155	52.5364
334.53	49.9432
337.905	34.7039
341.279	14.7644
344.654	7.19133
348.029	29.8685
351.404	50.1117
354.779	71.7926
358.154	88.3015
361.528	101.879
364.903	108.15
368.278	116.541
371.653	123.365
375.028	132.535
378.402	140.643
381.777	151.614
385.152	154.148
388.527	138.46
391.902	115.224
395.277	93.427
398.651	73.4176
402.026	58.1675
405.401	49.4156
408.776	44.8296
412.151	39.1092
415.526	35.3359
418.9	35.1639
422.275	36.1409
425.65	35.3928
429.025	35.1556
432.399	31.8077
435.774	26.765
439.149	24.4054
442.524	20.566
445.899	14.985
449.274	10.8743
452.648	9.04506
456.023	4.10382
459.398	4.62793
462.773	5.27275
466.148	7.26138
469.522	11.9391
472.897	8.4675
476.272	10.5785
479.647	11.2079
483.022	12.37
486.397	8.93979
489.771	10.0077
493.146	6.38155
496.521	6.42763
499.896	4.63757
503.271	5.16853
506.645	7.87897
510.02	7.75848
513.395	9.63364
516.77	10.1267
520.145	7.80525
523.519	4.47554
526.894	4.50075
530.269	0.090446
533.644	2.08474
537.019	3.20737
540.394	4.72944
543.768	4.85738
547.143	2.43236
550.518	1.25137
553.893	1.08744
557.268	2.06049
560.643	3.60534
564.017	2.0044
567.392	2.22987
570.767	3.74165
574.142	3.8006
577.516	4.07868
580.891	4.25868
584.266	5.22251
587.641	7.35487
591.016	9.76526
594.391	10.6806
597.765	10.0448
601.14	8.16785
604.515	7.58106
607.89	5.99974
611.265	4.67088
614.639	2.66857
618.014	2.22458
621.389	2.58925
624.764	2.02618
628.139	0.584057
631.514	0.574203
634.888	0.411705
638.263	1.18238
641.638	0.208572
645.013	1.0219
648.388	1.25794
651.763	1.21599
655.137	2.25771
658.512	2.56344
661.887	3.72508
665.262	4.50849
668.636	5.03883
672.011	14.5788
675.386	10.9359
678.761	5.62215
682.136	5.05968
685.511	5.27843
688.885	4.29521
692.26	3.20105
695.635	3.55151
699.01	3.19238
702.385	2.94939
705.76	2.66868
709.134	2.49057
712.509	2.19571
715.884	2.60527
719.259	2.24548
722.634	2.47612
726.008	3.07791
729.383	2.65521
732.758	2.91781
736.133	3.25385
739.508	2.87403
742.882	2.34982
746.257	2.44327
749.632	2.63598
753.007	2.23257
756.382	1.7546
759.756	2.51816
763.131	1.27343
766.506	1.7633
769.881	1.84462
773.256	1.13814
776.631	1.22465
780.005	1.0346
783.38	0.743626
786.755	0.586841
790.13	0.734703
793.505	0.2992
796.88	0.75318
800.254	0.820916
803.629	0.168871
807.004	0.491351
810.379	0.296579
813.754	0.088413
817.128	0.459527
820.503	0.156003
823.878	0.295696
827.253	0.044496
830.628	0.196152
834.002	0.463138
837.377	0.097013
840.752	0.112217
844.127	0.145806
847.502	0.224698
850.876	0.478871
854.251	0.543927
857.626	0.161933
861.001	0.498571
864.376	0.176535
867.751	0.065884
871.125	0.087759
874.5	0.130019
877.875	0.039908
881.25	0.262538
884.625	0.563638
888	0.076824
891.374	0.209792
894.749	0.281549
898.124	0.238883
901.499	0.743687
904.874	0.102991
908.248	0.351405
911.623	0.003967
914.998	0.450008
918.373	0.513134
921.748	0.690402
925.122	0.559056
928.497	0.74092
931.872	0.624245
935.247	0.378042
938.622	0.385242
941.996	0.428813
945.371	0.419471
948.746	0.359371
952.121	0.387531
955.496	0.940161
958.87	0.811456
962.245	0.248216
965.62	0.074616
968.995	0.57167
972.37	0.26677
975.745	0.280825
979.119	0.324733
982.494	0.227608
985.869	0.722571
989.244	0.64413
992.619	0.573435
995.994	0.162943
999.368	0.348681
1002.74	0.27573
1006.12	0.593772
1009.49	0.066696
1012.87	0.438448
1016.24	9.4296
1019.62	0.218552
1022.99	0.323776
1026.37	1.00507
1029.74	0.165041
1033.12	0.490911
1036.49	0.287292
1039.87	0.664253
1043.24	0.373808
1046.62	0.721752
1049.99	0.327113
1053.37	0.50101
1056.74	0.847507
1060.12	0.683533
1063.49	0.070523
1066.87	0.18714
1070.24	0.183593
1073.61	0.310081
1076.99	0.237911
1080.36	0.113813
1083.74	0.655878
1087.11	0.500869
1090.49	0.246658
1093.86	0.686483
1097.24	0.655833
1100.61	0.796825
1103.99	0.032264
1107.36	0.82926
1110.74	0.606914
1114.11	0.221676
1117.49	0.709316
1120.86	0.192144
1124.24	0.183337
1127.61	0.829212
1130.99	0.043382
1134.36	0.365276
1137.74	0.435926
1141.11	0.021618
1144.48	0.12534
1147.86	0.482863
1151.23	0.320069
1154.61	0.428591
1157.98	0.619508
1161.36	0.512826
1164.73	0.057748
1168.11	0.237695
1171.48	1.00502
1174.86	0.660692
1178.23	0.691039
1181.61	0.671404
1184.98	0.179362
1188.36	0.433252
1191.73	0.585424
1195.11	0.498063
1198.48	0.587142
1201.86	0.385222
1205.23	0.639556
1208.61	0.208498
1211.98	0.945789
1215.36	0.738574
1218.73	0.313269
1222.11	0.138121
1225.48	0.751192
1228.86	0.359445
1232.23	0.157506
1235.61	0.700158
1238.98	0.566773
1242.36	0.451143
1245.73	0.414711
1249.11	0.395793
1252.48	0.405716
1255.85	0.593956
1259.23	0.248629
1262.6	0.620969
1265.98	0.457087
1269.35	0.091635
1272.73	0.580205
1276.1	0.410547
1279.48	0.347796
1282.85	0.002352
1286.23	0
