Measurement: Raman, 780 nm, unoriented, Raman Data Processed
Mineral: Zircon
Rruff sample: R100144
Ideal chemistry: ZrSiO_4_
Locality: Sri Lanka
Source: William W. Pinch
Description: Brown, red, and green cut gemstones
Raman shift (cm-1)	intensity
154.245	0
157.137	16.3828
160.03	75.7559
162.923	95
165.816	90.2441
168.708	5.42383
171.601	10.502
174.494	3.40625
177.386	71.2871
180.279	180.705
183.172	352.504
186.065	506.537
188.957	693.971
191.85	997.211
194.743	1369.62
197.635	2119.51
200.528	3633.47
203.421	3490.27
206.313	3151.07
209.206	3840.78
212.099	4408.11
214.992	4077.74
217.884	4347.31
220.777	5445.83
223.67	6040.72
226.562	4031.95
229.455	2541.88
232.348	1937.67
235.24	1672.74
238.133	1494.5
241.026	1327.42
243.918	1298.48
246.811	1319.59
249.704	1303.6
252.597	1344.16
255.489	1382.97
258.382	1459.42
261.275	1490.06
264.167	1443.94
267.06	1391.38
269.953	1332.37
272.846	1267.11
275.738	1177.45
278.631	1090.04
281.524	1024.75
284.416	855.717
287.309	684.643
290.202	560.07
293.094	374.859
295.987	234.332
298.88	87.3926
301.772	34.9531
304.665	135.035
307.558	211.606
310.45	268.852
313.343	343.029
316.236	305.065
319.129	245.475
322.021	73.6269
324.914	176.266
327.807	576.973
330.699	1027.97
333.592	1772.01
336.485	2663.37
339.377	3737.17
342.27	5006.52
345.163	6724.56
348.056	9071.71
350.948	11941.6
353.841	13169.5
356.734	11172.5
359.626	8756.08
362.519	7483.57
365.412	6866.24
368.305	6894.31
371.197	7189.45
374.09	7669.67
376.983	8315.74
379.875	8892.18
382.768	9230.04
385.661	9360.36
388.553	9193.05
391.446	8643.84
394.339	7944.37
397.231	7139.24
400.124	6309.16
403.017	5555.32
405.909	5020.24
408.802	4689.69
411.695	4614.52
414.588	4807.3
417.48	5098.63
420.373	5717.5
423.266	6423.16
426.158	7325.31
429.051	8652.1
431.944	10594.5
434.837	12921.2
437.729	14461.4
440.622	13741.8
443.515	12821.5
446.407	12725.8
449.3	13374.5
452.193	14274
455.085	14819.3
457.978	14407.5
460.871	12774.2
463.764	10195.1
466.656	7571.91
469.549	5439.65
472.442	3697.8
475.334	2403.14
478.227	1431.64
481.12	796.023
484.012	375.451
486.905	53.5352
489.798	146.797
492.69	253.32
495.583	282.807
498.476	273.484
501.369	247.773
504.261	165.174
507.154	99.9727
510.047	39.6699
512.939	20.6562
515.832	73.3281
518.725	115.281
521.617	183.574
524.51	207.398
527.403	255.291
530.296	300.522
533.188	350.926
536.081	328.969
538.974	365.428
541.866	406.455
544.759	414.99
547.652	413.545
550.544	366.717
553.437	324.122
556.33	240.554
559.222	180.7
562.115	116.045
565.008	75.3154
567.901	81.5644
570.793	63.956
573.686	95.332
576.579	178.984
579.471	213.579
582.364	307.562
585.257	408.767
588.149	507.579
591.042	648.465
593.935	787.961
596.828	943.908
599.72	1028.39
602.613	1124.82
605.506	1160.2
608.398	1137.11
611.291	1074.65
614.184	927.12
617.077	803.632
619.969	657.532
622.862	507.955
625.755	371.632
628.647	260.753
631.54	135.116
634.433	93.2481
637.325	22.3447
640.218	9.73438
643.111	49.4609
646.004	51.2383
648.896	3.00781
651.789	82.0273
654.682	191.199
657.574	319.231
660.467	457.007
663.36	585.142
666.252	728.713
669.145	873.887
672.038	1050.94
674.931	1225.23
677.823	1430.36
680.716	1626.56
683.609	1814.21
686.501	2031.87
689.394	2194.8
692.287	2388.86
695.179	2521.82
698.072	2625.39
700.965	2739.38
703.857	2783.58
706.75	2839.8
709.643	2855.28
712.535	2827.41
715.428	2803.03
718.321	2718.93
721.214	2591.19
724.106	2467.35
726.999	2299.27
729.892	2107.84
732.784	1908.02
735.677	1696.49
738.57	1464.48
741.462	1288.1
744.355	1090.7
747.248	914.54
750.141	766.674
753.033	611.344
755.926	476.955
758.819	368.477
761.711	275.613
764.604	183.764
767.497	133.873
770.389	80.0049
773.282	28.2602
776.175	8.9668
779.068	10.2344
781.96	39.7329
784.853	30.5864
787.746	31.9058
790.638	9.79834
793.531	1.43262
796.424	12.7197
799.317	5.55811
802.209	7.99707
805.102	66.9263
807.995	82.6694
810.887	114.346
813.78	125.327
816.673	175.068
819.565	206.645
822.458	224.427
825.351	249.05
828.244	277.91
831.136	303.452
834.029	326.633
836.922	377.044
839.814	415.294
842.707	438.072
845.6	481.896
848.492	514.569
851.385	547.449
854.278	569.329
857.17	563.371
860.063	555.322
862.956	553.822
865.849	507.551
868.741	454.138
871.634	402.098
874.527	347.411
877.419	278.202
880.312	225.16
883.205	167.093
886.097	123.143
888.99	78.5513
891.883	61.2527
894.775	25.0986
897.668	1.40478
900.561	2.60815
903.454	22.8916
906.346	7.70459
909.239	7.09985
912.132	5.96582
915.024	3.65601
917.917	15.0564
920.81	25.4763
923.702	24.8274
926.595	38.6909
929.488	60.2647
932.381	90.9717
935.273	102.946
938.166	145.101
941.059	183.965
943.951	204.442
946.844	246.755
949.737	296.36
952.63	351.414
955.522	440.781
958.415	580.041
961.308	748.882
964.2	1027.95
967.093	1666.78
969.986	2862.21
972.878	2615.76
975.771	1625.48
978.664	1245.47
981.557	1173.14
984.449	1280.78
987.342	1548.14
990.235	2125.84
993.127	2969.85
996.02	4257.01
998.913	6987.23
1001.8	12906.7
1004.7	15860.3
1007.59	8565.08
1010.48	4291.94
1013.38	2521.39
1016.27	1643.9
1019.16	1107.62
1022.05	769.336
1024.95	538.54
1027.84	371.487
1030.73	257.346
1033.62	163.803
1036.52	111.263
1039.41	45.6663
1042.3	17.8313
1045.2	11.6758
1048.09	14.1355
1050.98	22.3796
1053.87	26.8733
1056.77	29.5654
1059.66	31.4009
1062.55	26.3301
1065.44	9.19775
1068.34	5.13281
1071.23	18.5454
1074.12	33.919
1077.02	46.0437
1079.91	74.7612
1082.8	104.617
1085.69	128.471
1088.59	163.065
1091.48	182.752
1094.37	202.028
1097.26	228.449
1100.16	234.279
1103.05	258.481
1105.94	259.287
1108.84	252.953
1111.73	237.618
1114.62	221.293
1117.51	221.272
1120.41	218.276
1123.3	220.026
1126.19	238.845
1129.08	270.77
1131.98	306.106
1134.87	365.817
1137.76	425.762
1140.65	479.09
1143.55	529.309
1146.44	606.42
1149.33	663.177
1152.23	751.27
1155.12	819.321
1158.01	933.078
1160.9	1054.41
1163.8	1196.25
1166.69	1312.04
1169.58	1378.79
1172.47	1423.75
1175.37	1436.53
1178.26	1454.46
1181.15	1469.15
1184.05	1502.11
1186.94	1513.15
1189.83	1551.5
1192.72	1572.79
1195.62	1591.59
1198.51	1581.39
1201.4	1530.88
1204.29	1485.31
1207.19	1394.81
1210.08	1294.77
1212.97	1155.25
1215.87	964.429
1218.76	750.979
1221.65	484.906
1224.54	216.348
1227.44	98.8311
1230.33	81.4805
1233.22	58.6909
1236.11	22.2402
1239.01	26.3887
1241.9	32.727
1244.79	50.7363
1247.68	103.064
1250.58	159.559
1253.47	270.144
1256.36	373.183
1259.26	333.124
1262.15	305.516
1265.04	368.244
1267.93	367.935
1270.83	390.666
1273.72	329.657
1276.61	403.322
1279.5	256.353
1282.4	120.301
