Measurement: Raman, 532 nm, unoriented, Raman Data Processed
Mineral: Zircophyllite
Rruff sample: R060216
Ideal chemistry: K_2_NaMn^2+^_7_Zr_2_(Si_4_O_12_)_2_O_2_(OH)_4_F
Locality: Desourdy Quarry, Mont Saint-Hilaire, Rouville County, Quebec, Canada
Source: Royal Ontario Museum
Description: Brown fragment showing lamellar habit.
Measured chemistry: (K_1.74_Na_0.18_[box]_0.08_)_Σ=2_(Na_0.92_Ca_0.08_)_Σ=1_(Mn_4.09_Fe^2+^_2.67_Mg_0.24_)_Σ=7_(Zr_1.42_Ti_0.58_)_Σ=2_(Si_7.86_Al_0.14_)_Σ=8_O_26_((OH)_3.14_O_0.86_)_Σ=4_
Raman shift (cm-1)	intensity
156.682	0
159.574	1.07802
162.467	6.74195
165.36	15.0514
168.252	24.7178
171.145	27.9834
174.038	23.7245
176.931	18.8685
179.823	10.2178
182.716	1.74346
185.609	0.057886
188.501	0.153374
191.394	0.558926
194.287	0.784033
197.179	2.30911
200.072	8.7972
202.965	16.9929
205.858	28.3461
208.75	35.9213
211.643	50.7076
214.536	66.9422
217.428	85.8657
220.321	97.276
223.214	108.466
226.107	118.823
228.999	128.312
231.892	135.286
234.785	142.382
237.677	142.397
240.57	142.151
243.463	141.16
246.355	134.144
249.248	128.973
252.141	120.037
255.034	121.533
257.926	124.567
260.819	126.123
263.712	120.557
266.604	106.748
269.497	81.5923
272.39	58.2108
275.282	33.2677
278.175	18.0684
281.068	6.84009
283.961	0.395987
286.853	0.165573
289.746	0.290021
292.639	0.147603
295.531	0.124572
298.424	0.553256
301.317	0.791594
304.209	0.186464
307.102	0.071928
309.995	1.10038
312.887	0.422283
315.78	1.53603
318.673	4.7864
321.566	10.6176
324.458	14.7194
327.351	19.8894
330.244	21.0259
333.136	21.5834
336.029	23.9574
338.922	25.1025
341.815	27.1333
344.707	26.4222
347.6	24.074
350.493	20.0243
353.385	17.3015
356.278	17.1511
359.171	18.6633
362.063	19.8055
364.956	24.3654
367.849	21.6744
370.741	20.5966
373.634	19.5858
376.527	19.8884
379.42	22.736
382.312	23.6935
385.205	23.0159
388.098	24.101
390.99	24.4315
393.883	23.7171
396.776	24.7295
399.668	24.1981
402.561	22.6519
405.454	22.3795
408.347	22.4558
411.239	24.2714
414.132	26.5838
417.025	29.5626
419.917	34.4152
422.81	35.2838
425.703	32.4329
428.596	26.2642
431.488	19.5697
434.381	10.7576
437.274	4.95697
440.166	0.420426
443.059	0.222829
445.952	1.192
448.844	0.576905
451.737	0.708647
454.63	0.599077
457.522	0.662525
460.415	3.22571
463.308	6.01543
466.201	12.337
469.093	15.7367
471.986	18.8366
474.879	19.0791
477.771	18.691
480.664	19.7092
483.557	19.5737
486.45	20.8937
489.342	21.3286
492.235	19.3833
495.128	16.3441
498.02	17.4317
500.913	15.3681
503.806	14.0479
506.698	11.1984
509.591	9.53827
512.484	7.88397
515.376	7.56063
518.269	5.31559
521.162	3.56274
524.055	0.122155
526.947	0.233291
529.84	0.235147
532.733	0.19436
535.625	0.311584
538.518	2.92213
541.411	9.5009
544.303	14.9456
547.196	26.9443
550.089	38.2129
552.982	52.1797
555.874	63.9415
558.767	68.0782
561.66	65.6128
564.552	57.1187
567.445	45.1653
570.338	33.0692
573.231	24.8837
576.123	18.1388
579.016	13.278
581.909	8.93584
584.801	10.1742
587.694	8.50847
590.587	7.77004
593.479	5.15529
596.372	0.97473
599.265	0.415243
602.157	0.483148
605.05	0.083773
607.943	0.077513
610.836	0.738403
613.728	0.658277
616.621	1.61767
619.514	0.436441
622.406	1.82651
625.299	0.66731
628.192	5.51741
631.084	13.1273
633.977	26.1739
636.87	49.0908
639.763	78.3723
642.655	116.487
645.548	165.71
648.441	221.247
651.333	270.003
654.226	289.884
657.119	249.206
660.011	168.658
662.904	99.1206
665.797	57.4612
668.689	34.9833
671.582	26.3971
674.475	23.0394
677.368	29.0015
680.26	37.3064
683.153	48.0806
686.046	59.656
688.938	70.8067
691.831	81.0781
694.724	90.4602
697.616	90.2835
700.509	92.0025
703.402	95.6253
706.295	95.0855
709.187	100.141
712.08	101.719
714.973	102.19
717.865	98.9396
720.758	89.1517
723.651	72.119
726.543	55.5197
729.436	43.7094
732.329	28.7841
735.222	19.6554
738.114	12.2942
741.007	5.42186
743.9	0.340644
746.792	1.86166
749.685	1.23958
752.578	0.862262
755.471	0.231351
758.363	1.76281
761.256	2.68964
764.149	3.36214
767.041	2.92213
769.934	0.863488
772.827	0.731505
775.719	0.377164
778.612	0.331255
781.505	1.85212
784.398	1.83465
787.29	1.4301
790.183	2.33933
793.076	2.16453
795.968	2.27763
798.861	2.1326
801.754	2.74855
804.646	2.90753
807.539	3.56222
810.432	1.34251
813.324	2.26654
816.217	0.947038
819.11	1.38469
822.003	0.332818
824.895	0.546443
827.788	1.14232
830.681	0.99763
833.573	0.310248
836.466	0.049198
839.359	0.618084
842.251	0.622534
845.144	0.830416
848.037	1.23618
850.93	0.226523
853.822	1.97554
856.715	3.84362
859.608	5.15747
862.5	8.29426
865.393	10.985
868.286	13.0998
871.178	17.0113
874.071	22.6478
876.964	28.1427
879.857	36.4784
882.749	39.7707
885.642	45.8867
888.535	50.9268
891.427	56.7463
894.32	64.8147
897.213	74.4331
900.106	82.2128
902.998	96.833
905.891	109.004
908.784	123.034
911.676	138.308
914.569	152.425
917.462	164.464
920.354	173.478
923.247	181.976
926.14	184.665
929.033	187.229
931.925	188.261
934.818	184.512
937.711	179.957
940.603	174.478
943.496	171.116
946.389	166.446
949.281	160.688
952.174	145.964
955.067	127.043
957.96	97.6106
960.852	69.9691
963.745	46.2972
966.638	27.3361
969.53	16.2031
972.423	4.67573
975.316	1.77701
978.208	0.914233
981.101	0.197609
983.994	1.64832
986.886	0.247752
989.779	0.882437
992.672	0.152662
995.564	0.703825
998.457	0.451293
1001.35	4.38029
1004.24	10.7254
1007.13	17.2695
1010.03	25.5254
1012.92	36.7639
1015.81	48.4033
1018.71	59.3215
1021.6	70.4524
1024.49	82.0045
1027.38	87.6787
1030.28	90.1088
1033.17	87.1619
1036.06	77.697
1038.95	62.6478
1041.85	47.4525
1044.74	32.6104
1047.63	21.7413
1050.53	14.5243
1053.42	9.26674
1056.31	4.07882
1059.2	4.02278
1062.1	0.039015
1064.99	2.42255
1067.88	0.957515
1070.78	2.75924
1073.67	4.35459
1076.56	6.19135
1079.45	8.70389
1082.35	8.44701
1085.24	9.85939
1088.13	9.84212
1091.02	10.6538
1093.92	10.8044
1096.81	10.6399
1099.7	9.19007
1102.59	7.21436
1105.49	4.71388
1108.38	2.1607
1111.27	0.332056
1114.16	0.543187
1117.06	0.075291
1119.95	0.108589
1122.84	0.319628
1125.74	0.220333
1128.63	0.129153
1131.52	0.160045
1134.41	0.133833
1137.31	0.148658
1140.2	0.581219
1143.09	0.133985
1145.98	0.70323
1148.88	1.23966
1151.77	2.36359
1154.66	1.23257
1157.56	2.26986
1160.45	2.67391
1163.34	3.52477
1166.23	3.49431
1169.13	2.97301
1172.02	4.41134
1174.91	3.86291
1177.81	2.0874
1180.7	3.43606
1183.59	3.38628
1186.48	3.9876
1189.38	3.28145
1192.27	2.27259
1195.16	1.74973
1198.05	2.72777
1200.95	0.87779
1203.84	1.29813
1206.73	1.18337
1209.62	1.04108
1212.52	1.24535
1215.41	0.753605
1218.3	1.45568
1221.19	1.80436
1224.09	1.51983
1226.98	0.523622
1229.87	0.446867
1232.77	1.1266
1235.66	0.357088
1238.55	1.60397
1241.44	0.475392
1244.34	1.18845
1247.23	0.885723
1250.12	0.091873
1253.02	1.13462
1255.91	0.502719
1258.8	0.154327
1261.69	0.689792
1264.59	0.6009
1267.48	0.183408
1270.37	0.598969
1273.26	0.710693
1276.16	0.840556
1279.05	1.47681
1281.94	0.960944
1284.83	0.118786
1287.73	0.485461
1290.62	1.71928
1293.51	0.015083
1296.4	0.4093
1299.3	0.007802
1302.19	1.37266
