Measurement: Raman, 532 nm, unoriented, Raman Data Processed
Mineral: Zircon
Rruff sample: R150083
Ideal chemistry: ZrSiO_4_
Locality: unknown
Source: Michael Scott
Description: Green tetragonal prismatic crystal
Raman shift (cm-1)	intensity
89.7832	0
93.158	143.917
96.5328	98.0669
99.9077	16.4697
103.282	17.6538
106.657	48.8452
110.032	196.124
113.407	293.559
116.782	378.044
120.157	378.988
123.531	399.649
126.906	382.86
130.281	386.74
133.656	362.522
137.031	328.76
140.405	370.29
143.78	331.931
147.155	312.633
150.53	309.791
153.905	306.394
157.28	290.696
160.654	270.111
164.029	274.858
167.404	253.763
170.779	249.554
174.154	236.948
177.528	251.926
180.903	255.488
184.278	311.66
187.653	390.469
191.028	486.289
194.403	596.405
197.777	754.833
201.152	912.062
204.527	953.613
207.902	887.02
211.277	820.13
214.651	784.301
218.026	767.006
221.401	715.703
224.776	579.802
228.151	391.405
231.525	209.382
234.9	115.15
238.275	64.7119
241.65	45.3687
245.025	26.6924
248.4	1.88965
251.774	15.4893
255.149	14.668
258.524	17.5557
261.899	17.502
265.274	9.25049
268.649	3.7666
272.023	9.53223
275.398	23.333
278.773	32.0757
282.148	16.7549
285.523	39.0742
288.897	36.2031
292.272	52.7007
295.647	55.4155
299.022	53.1655
302.397	63.3081
305.772	68.1304
309.146	108.713
312.521	128.367
315.896	145.591
319.271	166.334
322.646	219.303
326.02	298.454
329.395	395.41
332.77	518.872
336.145	707.3
339.52	922.496
342.894	1133.51
346.269	1341.49
349.644	1492.54
353.019	1498.21
356.394	1353.71
359.769	1079.76
363.143	769.465
366.518	527.825
369.893	304.979
373.268	196.988
376.643	128.899
380.017	92.9399
383.392	65.8701
386.767	37.1226
390.142	15.9321
393.517	36.0586
396.892	26.4673
400.266	3.44434
403.641	82.1689
407.016	135.895
410.391	217.336
413.766	393.94
417.14	578.127
420.515	804.609
423.89	1047.08
427.265	1348.26
430.64	1665.51
434.014	1878.48
437.389	1868.54
440.764	1666.33
444.139	1369.24
447.514	1092.11
450.889	841.185
454.263	671.607
457.638	557.136
461.013	448.01
464.388	368.857
467.763	280.397
471.137	237.8
474.512	161.898
477.887	106.997
481.262	74.2715
484.637	81.2891
488.012	76.8545
491.386	62.4883
494.761	44.999
498.136	24.5156
501.511	26.8975
504.886	18.3447
508.26	12.9316
511.635	25.5225
515.01	26.4551
518.385	6.66797
521.76	4.99023
525.135	4.73242
528.509	6.85938
531.884	5.19727
535.259	0.985352
538.634	2.80273
542.009	6.95117
545.384	3.55859
548.758	12.5381
552.133	11.9697
555.508	7.1416
558.883	2.48779
562.258	17.0186
565.632	11.7764
569.007	8.80029
572.382	11.9731
575.757	17.0186
579.132	54.8701
582.506	47.5488
585.881	57.7725
589.256	64.3486
592.631	39.4116
596.006	32.0684
599.381	30.6475
602.755	36.7959
606.13	20.2422
609.505	24.2534
612.88	22.9121
616.255	18.4585
619.63	2.93945
623.004	0.273438
626.379	3.40332
629.754	6.77686
633.129	1.93018
636.504	3.37402
639.878	1.89697
643.253	2.21924
646.628	12.0063
650.003	5.98144
653.378	3.50537
656.752	0.745117
660.127	15.6431
663.502	24.5293
666.877	25.7861
670.252	31.7998
673.626	45.7744
677.001	41.7383
680.376	49.7285
683.751	45.4648
687.126	36.1621
690.501	54.3569
693.875	51.3662
697.25	45.4136
700.625	46.2578
704	50.876
707.375	59.5005
710.75	51.2261
714.124	51.4575
717.499	37.6519
720.874	56.3779
724.249	51.3374
727.624	59.9258
730.998	38.749
734.373	40.4209
737.748	45.8711
741.123	48.4468
744.498	56.1807
747.872	69.4546
751.247	74.563
754.622	57.0981
757.997	52.5762
761.372	58.0796
764.747	58.1167
768.121	56.5508
771.496	77.4238
774.871	76.9326
778.246	78.8833
781.621	85.6836
784.995	106.305
788.37	96.1519
791.745	83.9053
795.12	82.1074
798.495	60.7798
801.87	60.4248
805.244	63.7329
808.619	73.7398
811.994	53.043
815.369	49.6289
818.744	44.4219
822.119	49.6094
825.493	30.0991
828.868	14.208
832.243	3.52002
835.618	1.89062
838.993	2.66992
842.367	13.2656
845.742	6.44482
849.117	4.63184
852.492	0.224609
855.867	17.2017
859.241	16.8525
862.616	15.0391
865.991	2.33643
869.366	6.10938
872.741	11.8413
876.115	2.79932
879.49	8.43262
882.865	9.73633
886.24	20.6001
889.615	13.729
892.99	1.81103
896.364	4.03125
899.739	5.94824
903.114	1.41211
906.489	5.47314
909.864	3.54004
913.239	6.18994
916.613	6.81201
919.988	7.80762
923.363	25.8442
926.738	20.9741
930.113	31.3633
933.487	58.5889
936.862	68.9365
940.237	95.7905
943.612	140.856
946.987	197.018
950.361	261.566
953.736	353.915
957.111	465.366
960.486	621.436
963.861	819.189
967.236	1009.44
970.61	1156.68
973.985	1225.98
977.36	1295.56
980.735	1451.36
984.11	1778.36
987.485	2312.55
990.859	3073.49
994.234	4009
997.609	4938.01
1000.98	5558.65
1004.36	5438.73
1007.73	4591.15
1011.11	3499.74
1014.48	2564.85
1017.86	1818.22
1021.23	1272.77
1024.61	886.207
1027.98	635.309
1031.36	429.276
1034.73	302.082
1038.11	213.922
1041.48	147.893
1044.86	108.523
1048.23	58.6699
1051.61	45.3169
1054.98	23.3833
1058.36	6.26025
1061.73	17.415
1065.11	11.9717
1068.48	9.22607
1071.86	9.02588
1075.23	2.12256
1078.6	6.75244
1081.98	1.85205
1085.35	11.2861
1088.73	14.1226
1092.1	11.4468
1095.48	10.8999
1098.85	22.0523
1102.23	20.1221
1105.6	21.0718
1108.98	27.3872
1112.35	24.0952
1115.73	38.2744
1119.1	35.8032
1122.48	49.6797
1125.85	34.1943
1129.23	22.8389
1132.6	27.2456
1135.98	25.6118
1139.35	40.3408
1142.73	44.9692
1146.1	46.9868
1149.48	46.5654
1152.85	59.1977
1156.22	66.4663
1159.6	59.8457
1162.97	55.7256
1166.35	63.6992
1169.72	67.1235
1173.1	67.4727
1176.47	73.4888
1179.85	69.2539
1183.22	69.854
1186.6	65.0664
1189.97	55.9243
1193.35	44.3848
1196.72	39.5161
1200.1	28.5073
1203.47	25.752
1206.85	24.3198
1210.22	21.0508
1213.6	17.7695
1216.97	16.8008
1220.35	21.5361
1223.72	8.15283
1227.1	5.74316
1230.47	8.03565
1233.85	1.60205
1237.22	2.57519
1240.6	4.48682
1243.97	3.76807
1247.35	10.5649
1250.72	21.8018
1254.1	12.7471
1257.47	17.7285
1260.85	12.2192
1264.22	9.62891
1267.59	0.807129
1270.97	1.9917
1274.34	4.34473
1277.72	9.64697
1281.09	13.8257
1284.47	1.75537
1287.84	4.38184
1291.22	5.08984
1294.59	13.1284
1297.97	2.77539
1301.34	1.95264
