Measurement: Raman, 514 nm, unoriented, Raman Data Processed
Mineral: Zircon
Rruff sample: R050034
Ideal chemistry: ZrSiO_4_
Locality: Oaxaca, Mexico
Source: University of Arizona Mineral Museum
Description: Reddish brown single crystal fragments
Measured chemistry: Zr_1.00_Si_1.00_O_4_
Raman shift (cm-1)	intensity
130.922	0
135.083	15.291
139.243	233.139
143.401	217.191
147.557	335.906
151.711	529.773
155.863	919.414
160.013	1419.01
164.161	1515.1
168.308	1375.8
172.452	1354.66
176.594	1194.81
180.734	1099.91
184.872	890.32
189.008	956.057
193.143	1685.71
197.275	3251.76
201.405	5318.27
205.534	2632.08
209.66	2124.48
213.784	2376.3
217.907	3933.92
222.027	7688.68
226.146	5260.33
230.263	2078.92
234.377	1138.48
238.49	718.988
242.601	427.42
246.709	179.74
250.816	65.883
254.921	70.193
259.024	107.523
263.125	207.133
267.224	49.975
271.321	47.791
275.416	59.314
279.51	251.369
283.601	428.787
287.69	157.014
291.778	64.068
295.863	12.273
299.947	25.758
304.029	151.043
308.108	132.818
312.186	314.332
316.262	616.145
320.336	673.02
324.408	712.795
328.478	953.348
332.546	1259.53
336.612	1768.28
340.677	2608.55
344.739	4764.31
348.799	10171.5
352.858	21002.2
356.915	18942.2
360.969	8944.24
365.022	4576.39
369.073	3196.9
373.122	2383.78
377.169	1958.95
381.215	2024.38
385.258	1960.01
389.299	1796
393.339	1968.34
397.376	1948.03
401.412	1612.76
405.446	1957.48
409.478	2226.43
413.508	2700.64
417.536	3681.35
421.562	5111.12
425.586	8216.56
429.609	14232
433.629	26934.4
437.648	32994.6
441.665	19401.7
445.68	9217.56
449.693	5062.91
453.704	3254.35
457.713	2287.78
461.721	1882.29
465.726	1602.88
469.73	1413.45
473.731	1408.7
477.731	934.104
481.729	783.637
485.725	630.291
489.72	613.047
493.712	563.895
497.703	726.816
501.691	1117.81
505.678	1210.87
509.663	1017.97
513.646	1089.11
517.627	978.283
521.607	855.48
525.584	719.701
529.56	519.938
533.534	575.18
537.506	433.422
541.476	377.656
545.444	410.879
549.41	253.188
553.375	139.186
557.337	233.326
561.298	2.951
565.257	81.404
569.214	28.814
573.17	80.809
577.123	16.129
581.075	292.062
585.024	149.01
588.972	118.836
592.918	33.881
596.863	138.875
600.805	44.219
604.746	234.27
608.685	445.391
612.621	409.846
616.557	524.768
620.49	810.684
624.421	679.279
628.351	1275.74
632.279	1390
636.205	1050.07
640.129	1011.92
644.051	812.57
647.972	1099.01
651.89	985.914
655.807	899.246
659.722	929.041
663.636	914.617
667.547	712.975
671.457	638.109
675.365	504.023
679.271	456.717
683.175	582.186
687.077	610.434
690.978	630.455
694.877	622.256
698.774	263.834
702.669	276.191
706.562	353.32
710.454	410.512
714.344	80.174
718.232	109.389
722.118	56.596
726.002	112.146
729.885	86.92
733.766	47.84
737.645	51.199
741.522	106.777
745.397	241.279
749.271	208.709
753.143	18.678
757.013	12.42
760.881	52.631
764.748	84.543
768.613	59.02
772.476	0.852
776.337	166.158
780.196	481.07
784.054	496.891
787.91	1292.62
791.764	2092.27
795.616	2360.84
799.467	1662.34
803.316	901.771
807.163	903.145
811.008	553.463
814.851	742.734
818.693	920.963
822.533	1252.15
826.371	1306.31
830.208	1019.44
834.042	732.547
837.875	1310.66
841.706	1279.76
845.536	686.867
849.363	163.971
853.189	35.082
857.013	182.209
860.836	84.307
864.656	304.846
868.475	236.672
872.292	39.27
876.108	129.496
879.922	376.605
883.733	365.729
887.544	172.623
891.352	241.463
895.159	234.42
898.964	280.281
902.767	172.713
906.568	356.066
910.368	316.918
914.166	213.16
917.962	156.6
921.757	564.332
925.55	629.74
929.341	615.23
933.13	480.064
936.918	499.084
940.703	542.289
944.488	432.674
948.27	515.258
952.051	663.047
955.83	618.09
959.607	487.336
963.383	578.758
967.156	922.361
970.928	2187.14
974.699	2206.08
978.468	1232.17
982.234	652.42
986	830.83
989.763	906.148
993.525	1173.9
997.285	1997.85
1001.04	3941.03
1004.8	10970.4
1008.55	8522.27
1012.31	3471.6
1016.06	1758.46
1019.81	1178.84
1023.56	1033.35
1027.31	1071.13
1031.05	1187.26
1034.79	1149.64
1038.53	1297.07
1042.27	1272.16
1046.01	1517.95
1049.75	2007.46
1053.48	2655.15
1057.22	2074.51
1060.95	1339.33
1064.68	1227.41
1068.4	1350.73
1072.13	1169.32
1075.86	1420.9
1079.58	1368.52
1083.3	1911.64
1087.02	2913.98
1090.74	1991.04
1094.45	991.756
1098.17	664.836
1101.88	579.357
1105.59	938.361
1109.3	814.402
1113.01	648.764
1116.71	362.822
1120.42	343.453
1124.12	813.537
1127.82	424.623
1131.52	317.5
1135.22	43.152
1138.91	502.238
1142.61	484.537
1146.3	735.852
1149.99	463.062
1153.68	192.801
1157.37	8.84
1161.06	114.496
1164.74	138.867
1168.42	20.088
1172.1	58.789
1175.78	188.293
1179.46	52.152
1183.14	37.309
1186.81	56.002
1190.48	69.26
1194.15	20.184
1197.83	431.123
1201.49	110.252
1205.16	285.363
1208.82	112.996
1212.49	133.873
1216.15	295.441
1219.81	223.904
1223.46	222.871
1227.12	191.398
1230.78	171.436
1234.43	293.594
1238.08	463.629
1241.73	317.301
1245.38	29.6
1249.03	55.18
1252.67	188.346
1256.31	252.617
1259.95	341.789
1263.6	349.293
1267.23	523.639
1270.87	452.678
1274.51	632.252
1278.14	240.311
1281.77	376.578
1285.4	387.119
1289.03	264.309
1292.66	299.596
1296.28	401.27
1299.91	171.473
1303.53	151.752
1307.15	163.879
1310.77	261.07
1314.38	158.258
1318	93.566
1321.61	140.717
1325.23	181.367
1328.84	107.111
1332.45	113.652
1336.06	131.518
1339.66	81.115
1343.27	27.824
1346.87	10.34
1350.47	151.303
1354.07	350.412
1357.67	418.719
1361.26	319.301
1364.86	318.764
1368.45	153.227
1372.04	247.217
1375.63	204.992
1379.22	35.895
1382.81	109.805
1386.39	170.709
1389.98	72.723
1393.56	172.281
1397.14	175.404
1400.72	52.324
1404.3	22.998
1407.87	140.568
1411.45	70.912
1415.02	159.221
1418.59	5.379
1422.16	311.93
1425.73	167.186
1429.29	368.482
1432.86	599.822
1436.42	658.656
1439.98	509.129
1443.54	517.461
1447.1	553.316
1450.66	654.877
1454.21	950.547
1457.77	1756.15
1461.32	2166.55
1464.87	2184.77
1468.42	1416.29
1471.96	1224.78
1475.51	731.752
1479.06	308.764
1482.6	6.021
