Measurement: Raman, 532 nm, unoriented, Raman Data Processed
Mineral: Zircon
Rruff sample: R050286
Ideal chemistry: ZrSiO_4_
Locality: Renfrew County, Ontario, Canada
Source: Marcus Origlieri
Description: Brownish red prismatic crystal frozen in matrix, associated with apatite
Measured chemistry: Zr_1.00_Si_1.00_O_4_; trace amounts of Hf
Raman shift (cm-1)	intensity
143.696	0
147.071	14.5413
150.446	13.5533
153.82	5.4585
157.195	1.81653
160.57	7.80273
163.945	18.5212
167.32	19.8215
170.694	19.2648
174.069	20.5077
177.444	27.6105
180.819	49.5298
184.194	92.8817
187.569	135.654
190.943	199.966
194.318	304.123
197.693	489.124
201.068	923.649
204.443	744.967
207.817	626.473
211.192	880.497
214.567	911.917
217.942	785.709
221.317	1082.45
224.691	1327.29
228.066	545.697
231.441	195.772
234.816	97.2023
238.191	58.3361
241.565	37.8897
244.94	29.9862
248.315	21.4988
251.69	17.5232
255.065	21.0759
258.44	26.1682
261.815	34.9835
265.189	42.7441
268.564	34.4788
271.939	17.9573
275.314	13.8906
278.688	2.40625
282.063	3.93347
285.438	4.89343
288.813	4.41113
292.188	6.9895
295.563	6.19275
298.937	9.42761
302.312	1.71033
305.687	0.463379
309.062	0.495972
312.437	4.03455
315.812	15.2825
319.186	33.3085
322.561	60.3097
325.936	98.7256
329.311	144.777
332.686	224.027
336.06	387.761
339.435	639.202
342.81	960.514
346.185	1419.6
349.56	2226.44
352.935	3288.46
356.309	3097.94
359.684	1570.8
363.059	721.928
366.434	367.007
369.809	206.043
373.183	117.693
376.558	76.3645
379.933	49.8561
383.308	39.7451
386.683	47.3671
390.058	58.1435
393.432	26.9615
396.807	1.40674
400.182	3.78076
403.557	29.8643
406.932	87.1499
410.306	144.751
413.681	221.512
417.056	307.045
420.431	397.203
423.806	556.997
427.18	809.033
430.555	1205.65
433.93	1798.77
437.305	2281.97
440.68	1914.92
444.055	1114.01
447.429	664.536
450.804	434.337
454.179	286.096
457.554	195.197
460.929	164.607
464.303	159.942
467.678	165.747
471.053	169.038
474.428	126.835
477.803	74.9841
481.178	44.0668
484.552	18.8368
487.927	6.19556
491.302	12.0232
494.677	10.735
498.052	8.34802
501.426	23.5768
504.801	42.6547
508.176	42.1061
511.551	22.41
514.926	6.08008
518.301	4.59924
521.675	1.03259
525.05	2.35522
528.425	1.73987
531.8	13.3638
535.175	22.0129
538.549	43.3254
541.924	59.3927
545.299	77.4053
548.674	69.3204
552.049	47.3914
555.423	37.6912
558.798	26.7052
562.173	13.5599
565.548	12.3641
568.923	15.3767
572.298	17.4707
575.672	16.4609
579.047	18.7726
582.422	10.991
585.797	5.97559
589.172	5.39868
592.546	0.910034
595.921	2.34912
599.296	0.234619
602.671	8.65491
606.046	15.3407
609.42	24.615
612.795	34.7944
616.17	57.0288
619.545	68.9844
622.92	70.7755
626.295	72.6397
629.669	65.7159
633.044	56.3805
636.419	56.9714
639.794	51.8798
643.169	45.2206
646.543	26.5474
649.918	27.8132
653.293	20.3881
656.668	17.3306
660.043	12.1587
663.418	8.49268
666.792	6.09473
670.167	9.35193
673.542	6.76978
676.917	19.1091
680.292	17.0925
683.667	22.1915
687.041	26.1642
690.416	35.5039
693.791	37.613
697.166	36.6299
700.541	36.8906
703.915	41.6931
707.29	33.696
710.665	36.0519
714.04	26.4221
717.415	26.1559
720.789	11.0675
724.164	2.68188
727.539	0.953003
730.914	4.94983
734.289	2.2406
737.664	7.9585
741.038	2.5614
744.413	4.00525
747.788	10.5253
751.163	12.4499
754.538	12.1887
757.913	13.9221
761.287	9.57117
764.662	1.78345
768.037	5.44617
771.412	1.34851
774.787	4.65723
778.161	12.2793
781.536	17.8043
784.911	21.8705
788.286	33.085
791.661	35.0065
795.035	38.6328
798.41	49.3883
801.785	59.8735
805.16	77.8142
808.535	100.879
811.909	130.871
815.284	161.552
818.659	195.89
822.034	207.006
825.409	188.708
828.784	168.86
832.158	144.795
835.533	130.681
838.908	120.21
842.283	98.6012
845.658	70.4132
849.033	53.5421
852.407	44.0143
855.782	42.9529
859.157	40.575
862.532	43.9463
865.907	50.8472
869.281	49.678
872.656	49.6883
876.031	43.5708
879.406	37.0293
882.781	30.4945
886.155	21.8485
889.53	15.3926
892.905	6.06763
896.28	12.0757
899.655	11.1027
903.03	6.32434
906.404	4.44531
909.779	0.042114
913.154	1.66492
916.529	3.47681
919.904	6.10132
923.279	3.09021
926.653	6.22839
930.028	5.55139
933.403	6.5437
936.778	7.15088
940.153	0.739624
943.527	6.92102
946.902	18.1404
950.277	21.8757
953.652	39.1073
957.027	59.8174
960.402	114.134
963.776	199.915
967.151	348.661
970.526	655.866
973.901	719.453
977.276	353.462
980.65	244.633
984.025	237.796
987.4	299.373
990.775	489.57
994.15	967.727
997.524	1678.67
1000.9	3059.34
1004.27	5616.88
1007.65	4490.59
1011.02	1642.16
1014.4	766.641
1017.77	426.089
1021.15	259.624
1024.52	158.365
1027.9	100.278
1031.27	69.7927
1034.65	41.7384
1038.02	29.9728
1041.4	19.0292
1044.77	11.7921
1048.15	9.2771
1051.52	5.52136
1054.9	2.99207
1058.27	9.34753
1061.65	3.55566
1065.02	6.31567
1068.4	6.76721
1071.77	7.07056
1075.14	8.85596
1078.52	11.9832
1081.89	1.56458
1085.27	6.03613
1088.64	5.42224
1092.02	1.96765
1095.39	4.25989
1098.77	3.77966
1102.14	4.61548
1105.52	2.31677
1108.89	4.59338
1112.27	0.064819
1115.64	2.08411
1119.02	3.97241
1122.39	10.1434
1125.77	3.01221
1129.14	11.08
1132.52	9.6781
1135.89	8.98023
1139.27	14.9207
1142.64	18.5516
1146.02	23.733
1149.39	27.2738
1152.77	27.3652
1156.14	40.1658
1159.52	45.4001
1162.89	51.5963
1166.27	60.6603
1169.64	74.7251
1173.02	95.9116
1176.39	119.588
1179.77	135.196
1183.14	137.907
1186.51	127.634
1189.89	108.257
1193.26	82.7689
1196.64	63.7062
1200.01	50.7728
1203.39	39.916
1206.76	36.1655
1210.14	23.4376
1213.51	21.527
1216.89	19.5939
1220.26	13.5188
1223.64	10.4127
1227.01	14.6172
1230.39	6.61792
1233.76	4.54077
1237.14	1.50757
1240.51	0.543335
1243.89	0.282349
1247.26	0.699219
1250.64	1.73315
1254.01	1.40759
1257.38	1.93994
1260.76	3.67664
1264.13	5.21497
1267.51	5.06653
1270.88	11.917
1274.26	7.67896
1277.63	7.9032
1281.01	2.0929
1284.38	0.194458
1287.76	0.568115
1291.13	5.62964
1294.51	4.34521
1297.88	1.40442
1301.26	1.83167
1304.63	0
