Measurement: Raman, 532 nm, unoriented, Raman Data Processed
Mineral: Zircon
Rruff sample: R050203
Ideal chemistry: ZrSiO_4_
Locality: Eastern Thailand
Source: Eric Van Valkenburg
Description: Dark red water-worn single crystal
Measured chemistry: (Zr_0.99_Hf_0.01_)_Î£=1_Si_1.00_O_4_
Raman shift (cm-1)	intensity
101.007	0
104.382	0.502166
107.757	2.02284
111.132	1.44156
114.506	2.76083
117.881	5.75209
121.256	7.96955
124.631	12.0728
128.006	12.4293
131.381	18.6213
134.755	24.9663
138.13	28.998
141.505	31.7546
144.88	38.2135
148.255	41.6239
151.629	36.121
155.004	32.7491
158.379	29.5491
161.754	28.735
165.129	25.1517
168.504	23.833
171.878	21.4678
175.253	21.8311
178.628	23.7866
182.003	39.9926
185.377	92.3469
188.752	107.226
192.127	153.34
195.502	234.094
198.877	478.031
202.252	1774.91
205.626	297.985
209.001	289.786
212.376	523.308
215.751	930.632
219.126	633.662
222.5	1306.76
225.875	2707.84
229.25	515.443
232.625	113.329
236	37.4759
239.375	14.7619
242.749	3.77168
246.124	0.367851
249.499	2.49326
252.874	2.01788
256.249	0.421543
259.623	5.18703
262.998	11.9008
266.373	9.99574
269.748	6.67108
273.123	5.82674
276.498	4.5892
279.872	4.3001
283.247	8.46073
286.622	18.1956
289.997	27.4206
293.372	19.3448
296.747	4.57909
300.121	0.092621
303.496	0.556847
306.871	3.25642
310.246	0.961967
313.62	3.81657
316.995	2.86632
320.37	0.532219
323.745	5.36384
327.12	15.7134
330.495	34.7439
333.869	67.4351
337.244	166.099
340.619	410.629
343.994	636.497
347.369	1008.26
350.743	1841.83
354.118	4291.63
357.493	7230.6
360.868	2368.39
364.243	618.965
367.618	241.111
370.992	102.69
374.367	35.3687
377.742	8.48637
381.117	3.47401
384.492	5.32332
387.866	14.4309
391.241	50.006
394.616	61.1581
397.991	30.6903
401.366	26.2189
404.741	45.5292
408.115	108.46
411.49	229.291
414.865	409.785
418.24	427.014
421.615	278.089
424.99	418.707
428.364	663.786
431.739	1192.55
435.114	2439.49
438.489	4503.66
441.864	3425.43
445.238	1320.88
448.613	774.843
451.988	489.781
455.363	263.211
458.738	134.828
462.113	90.2505
465.487	83.3391
468.862	93.6546
472.237	108.467
475.612	67.339
478.986	24.9724
482.361	15.6308
485.736	10.8052
489.111	0.850876
492.486	4.97478
495.861	5.74268
499.235	7.40512
502.61	43.0532
505.985	115.689
509.36	151.33
512.735	53.806
516.11	13.0068
519.484	0.513908
522.859	2.18575
526.234	0.375015
529.609	2.86016
532.984	0.506157
536.358	3.19175
539.733	1.17735
543.108	11.0333
546.483	20.2077
549.858	18.0927
553.232	12.5095
556.607	10.4338
559.982	8.80301
563.357	5.22312
566.732	4.24511
570.107	5.83852
573.481	7.074
576.856	6.75097
580.231	6.99651
583.606	6.09689
586.981	8.00401
590.356	9.40963
593.73	10.8774
597.105	12.035
600.48	14.3116
603.855	12.8026
607.23	10.8229
610.604	11.0748
613.979	14.6005
617.354	19.7684
620.729	26.9252
624.104	35.3108
627.479	46.0767
630.853	55.6855
634.228	51.2425
637.603	42.9435
640.978	39.9426
644.352	28.3394
647.727	19.2208
651.102	14.2434
654.477	10.8799
657.852	9.55963
661.227	7.7883
664.601	8.48039
667.976	7.04476
671.351	3.86541
674.726	2.2934
678.101	0.259254
681.476	2.77216
684.85	0.021255
688.225	0.909004
691.6	3.4473
694.975	9.59382
698.35	17.2049
701.724	25.7651
705.099	32.6782
708.474	37.8908
711.849	36.8346
715.224	33.5692
718.598	29.436
721.973	27.947
725.348	25.1045
728.723	24.425
732.098	20.3644
735.472	14.805
738.847	10.0697
742.222	5.69854
745.597	5.90099
748.972	3.42171
752.347	2.61966
755.721	0.852829
759.096	1.34639
762.471	2.92464
765.846	1.24966
769.221	0.352448
772.596	2.73378
775.97	0.605087
779.345	0.515244
782.72	0.298508
786.095	1.98907
789.47	9.37227
792.844	14.8744
796.219	24.0172
799.594	42.0382
802.969	66.7977
806.344	101.709
809.718	149.646
813.093	220.859
816.468	316.683
819.843	454.91
823.218	589.421
826.593	584.702
829.967	440.424
833.342	321.58
836.717	259.873
840.092	224.014
843.467	188.56
846.841	148.382
850.216	113.864
853.591	86.8019
856.966	73.2722
860.341	66.0682
863.716	70.0749
867.09	76.276
870.465	79.4511
873.84	81.8994
877.215	76.208
880.59	66.0151
883.965	53.3507
887.339	38.9855
890.714	28.6045
894.089	22.2654
897.464	17.8663
900.839	15.2284
904.213	12.0171
907.588	7.67162
910.963	4.08799
914.338	0.424179
917.713	1.42945
921.087	2.75614
924.462	1.34927
927.837	0.956512
931.212	2.92989
934.587	1.86473
937.962	0.207352
941.336	0.845467
944.711	2.09337
948.086	7.28533
951.461	11.6071
954.836	16.2046
958.21	22.8949
961.585	36.7016
964.96	65.0176
968.335	107.652
971.71	270.436
975.085	799.917
978.459	248.611
981.834	86.1197
985.209	66.872
988.584	68.8799
991.959	87.085
995.333	184.791
998.708	400.562
1002.08	722.339
1005.46	1997.62
1008.83	5779.64
1012.21	1352.97
1015.58	318.657
1018.96	146.844
1022.33	85.9544
1025.71	53.4955
1029.08	38.2392
1032.46	28.2183
1035.83	23.2508
1039.21	18.8915
1042.58	15.5263
1045.96	13.767
1049.33	12.8958
1052.7	13.1727
1056.08	10.5455
1059.45	7.80015
1062.83	3.88812
1066.2	2.18748
1069.58	0.808159
1072.95	1.53584
1076.33	1.93903
1079.7	1.65343
1083.08	0.347504
1086.45	0.474274
1089.83	1.05609
1093.2	0.157234
1096.58	0.189293
1099.95	0.692101
1103.33	0.340149
1106.7	0.919746
1110.08	0.107124
1113.45	1.09612
1116.83	2.25737
1120.2	1.47371
1123.58	3.00259
1126.95	3.19492
1130.33	4.28787
1133.7	2.5739
1137.08	2.54579
1140.45	4.85919
1143.83	6.09913
1147.2	8.68733
1150.58	11.3629
1153.95	14.474
1157.33	17.6411
1160.7	21.778
1164.07	29.1988
1167.45	35.053
1170.82	50.6044
1174.2	69.0522
1177.57	94.4888
1180.95	123.042
1184.32	147.182
1187.7	151.492
1191.07	136.596
1194.45	107.281
1197.82	81.5778
1201.2	59.9772
1204.57	47.0057
1207.95	35.9724
1211.32	28.1568
1214.7	25.0922
1218.07	22.8266
1221.45	20.5221
1224.82	16.4522
1228.2	11.4748
1231.57	8.25414
1234.94	5.03926
1238.32	1.91087
1241.69	0.614944
1245.07	0.412598
1248.44	0.319534
1251.82	0.438194
1255.19	0.455086
1258.57	1.24617
1261.94	4.66536
1265.32	6.19539
1268.69	8.86323
1272.07	8.42198
1275.44	8.17384
1278.82	8.92168
1282.19	7.50253
1285.57	4.85578
1288.94	1.44072
1292.32	1.81187
1295.69	0.764313
