Measurement: Raman, 532 nm, unoriented, Raman Data Processed
Mineral: Zircon
Rruff sample: R100144
Ideal chemistry: ZrSiO_4_
Locality: Sri Lanka
Source: William W. Pinch
Description: Brown, red, and green cut gemstones
Raman shift (cm-1)	intensity
126.23	0
129.605	21.1581
132.979	20.3962
136.354	10.3043
139.729	6.75005
143.104	83.8838
146.479	155.781
149.853	201.023
153.228	318.925
156.603	454.848
159.978	523.683
163.353	551.15
166.728	613.032
170.102	700.198
173.477	686.684
176.852	653.191
180.227	632.228
183.602	706.912
186.976	797.137
190.351	922.564
193.726	1131.03
197.101	1456.23
200.476	2139.97
203.851	2519.72
207.225	1915.31
210.6	2239.49
213.975	2297.94
217.35	2030.09
220.725	2405.88
224.1	2874.34
227.474	1741.86
230.849	709.525
234.224	380.756
237.599	241.277
240.974	185.594
244.348	160.124
247.723	150.486
251.098	152.855
254.473	163.083
257.848	169.215
261.223	179.428
264.597	167.067
267.972	145.039
271.347	97.5961
274.722	66.1128
278.097	41.2196
281.471	18.2614
284.846	6.76111
288.221	5.27502
291.596	5.98999
294.971	13.6995
298.346	26.8284
301.72	27.7224
305.095	28.5502
308.47	22.5857
311.845	8.31457
315.22	16.5371
318.594	58.2842
321.969	122.324
325.344	200.304
328.719	309.725
332.094	488.041
335.469	833.72
338.843	1358.49
342.218	2024.08
345.593	2968.49
348.968	4375.22
352.343	5998.73
355.717	5795.8
359.092	3438.9
362.467	1711.6
365.842	864.314
369.217	438.372
372.592	206.656
375.966	104.65
379.341	51.0934
382.716	24.0911
386.091	39.6478
389.466	69.2534
392.841	49.9899
396.215	18.6162
399.59	50.3683
402.965	144.653
406.34	284.709
409.715	448.258
413.089	624.505
416.464	807.692
419.839	989.516
423.214	1381.8
426.589	1980.46
429.964	2895.64
433.338	4104.12
436.713	5215.2
440.088	4876.54
443.463	3239.49
446.838	2028
450.212	1336.15
453.587	871.709
456.962	590.432
460.337	461.8
463.712	435.001
467.087	450.009
470.461	447.632
473.836	355.321
477.211	234.905
480.586	154.814
483.961	84.8872
487.336	29.7517
490.71	1.85254
494.085	13.7123
497.46	11.818
500.835	61.6273
504.21	97.8254
507.584	92.9955
510.959	53.1393
514.334	6.7439
517.709	16.5718
521.084	20.3286
524.458	12.9806
527.833	0.389648
531.208	11.3978
534.583	30.7346
537.958	59.9069
541.333	103.912
544.707	132.206
548.082	127.193
551.457	107.856
554.832	79.955
558.207	63.4874
561.582	45.3098
564.956	46.3608
568.331	49.9512
571.706	52.5715
575.081	52.6591
578.456	51.386
581.83	41.895
585.205	33.6611
588.58	31.0832
591.955	21.231
595.33	17.0299
598.705	21.7046
602.079	26.0338
605.454	40.3452
608.829	66.5582
612.204	103.278
615.579	144.335
618.953	163.949
622.328	169.334
625.703	166.747
629.078	161.798
632.453	143.749
635.828	127.497
639.202	114.263
642.577	101.949
645.952	63.7783
649.327	35.7308
652.702	18.4327
656.077	14.3472
659.451	12.5005
662.826	4.53918
666.201	1.7085
669.576	1.81848
672.951	11.8283
676.325	19.4408
679.7	35.0222
683.075	55.0902
686.45	77.0243
689.825	96.093
693.199	113.862
696.574	117.087
699.949	128.548
703.324	131.223
706.699	132.602
710.074	114.719
713.448	91.3147
716.823	71.827
720.198	39.822
723.573	21.6316
726.948	4.94397
730.323	13.7729
733.697	13.9164
737.072	1.7533
740.447	1.2262
743.822	5.22656
747.197	11.0749
750.572	16.587
753.946	11.733
757.321	16.4823
760.696	9.44934
764.071	2.19434
767.446	5.88623
770.82	1.86523
774.195	5.10925
777.57	16.7925
780.945	28.0617
784.32	48.4522
787.694	61.8201
791.069	76.9703
794.444	108.603
797.819	137.528
801.194	187.237
804.569	244.47
807.943	309.609
811.318	392.859
814.693	483.481
818.068	537.289
821.443	548.776
824.818	502.613
828.192	426.901
831.567	380.799
834.942	341.764
838.317	300.88
841.692	252.894
845.067	198.763
848.441	167.215
851.816	158.825
855.191	164.099
858.566	178.297
861.941	195.717
865.315	205.887
868.69	216.292
872.065	214.614
875.44	196.129
878.815	172.779
882.189	149.209
885.564	115.448
888.939	94.3835
892.314	83.8704
895.689	61.4205
899.064	53.2316
902.438	38.87
905.813	29.2526
909.188	22.6757
912.563	9.85449
915.938	4.82544
919.312	7.38489
922.687	8.36731
926.062	13.2087
929.437	13.3445
932.812	10.247
936.187	4.01074
939.562	3.61597
942.936	16.9646
946.311	42.4716
949.686	69.7467
953.061	113.291
956.436	190.231
959.81	348.878
963.185	579.761
966.56	955.673
969.935	1586.23
973.31	1569.8
976.684	878.977
980.059	621.648
983.434	611.731
986.809	789.294
990.184	1273.82
993.559	2370.68
996.933	4014.42
1000.31	6897.99
1003.68	10725
1007.06	7882.81
1010.43	3427.62
1013.81	1741.91
1017.18	1018.29
1020.56	630.547
1023.93	396.092
1027.31	264.14
1030.68	169.231
1034.06	116.049
1037.43	83.9943
1040.81	53.0156
1044.18	38.7098
1047.56	28.5784
1050.93	23.8014
1054.31	13.5597
1057.68	10.7208
1061.06	12.9185
1064.43	10.9942
1067.81	8.07886
1071.18	7.60486
1074.55	6.14398
1077.93	0.08728
1081.3	0.870117
1084.68	6.37384
1088.05	4.65033
1091.43	5.00385
1094.8	7.02478
1098.18	4.104
1101.55	2.95196
1104.93	3.14203
1108.3	5.95807
1111.68	10.9298
1115.05	18.7985
1118.43	27.1954
1121.8	35.9891
1125.18	48.7087
1128.55	66.832
1131.93	84.1441
1135.3	98.6182
1138.68	118.542
1142.05	145.003
1145.43	173.746
1148.8	204.522
1152.17	246.163
1155.55	300.599
1158.92	361.042
1162.3	448.236
1165.67	550.837
1169.05	673.065
1172.42	803.694
1175.8	919.214
1179.17	988.437
1182.55	980.244
1185.92	882.475
1189.3	742.807
1192.67	594.464
1196.05	464.26
1199.42	360.966
1202.8	280.105
1206.17	216.07
1209.55	168.972
1212.92	136.71
1216.3	103.696
1219.67	79.6678
1223.05	58.4548
1226.42	39.545
1229.8	23.603
1233.17	16.7049
1236.55	7.41174
1239.92	1.04407
1243.3	5.57028
1246.67	4.0845
1250.05	2.58124
1253.42	3.2601
1256.8	10.9672
1260.17	18.9987
1263.54	29.5034
1266.92	37.2454
1270.29	44.6095
1273.67	42.6289
1277.04	30.2742
1280.42	23.7084
1283.79	13.6566
1287.17	7.71448
1290.54	4.78827
1293.92	2.19849
1297.29	4.13806
1300.67	0.500763
