Measurement: Raman, 532 nm, unoriented, Raman Data Processed
Mineral: Zircon
Rruff sample: R050488
Ideal chemistry: ZrSiO_4_
Locality: Sigulani Village, Tambani Area, Blantyre District, Nyassaland
Source: California Institute of Technology
Description: Brown fragment
Measured chemistry: (Zr_0.99_Hf_0.01_)_Î£=1_Si_1.00_O_4_
Raman shift (cm-1)	intensity
143.076	0
146.451	1.31287
149.826	0.933441
153.201	4.42175
156.576	8.96008
159.951	15.2911
163.325	14.8991
166.7	17.2544
170.075	15.2749
173.45	18.0962
176.825	23.8549
180.199	26.0666
183.574	44.0064
186.949	67.8874
190.324	84.0252
193.699	127.922
197.073	179.495
200.448	282.105
203.823	305.289
207.198	284.208
210.573	356.339
213.948	344.642
217.322	273.844
220.697	304.09
224.072	334.351
227.447	180.398
230.822	69.2017
234.196	32.6689
237.571	19.14
240.946	12.7885
244.321	5.211
247.696	1.6442
251.071	4.74066
254.445	5.21939
257.82	6.70386
261.195	7.99884
264.57	10.5412
267.945	11.301
271.32	3.36084
274.694	0.030182
278.069	1.716
281.444	0.476044
284.819	0.018768
288.193	2.45764
291.568	1.88971
294.943	4.00565
298.318	4.31409
301.693	1.7644
305.068	0.331177
308.442	1.07401
311.817	1.26077
315.192	2.2695
318.567	5.84708
321.942	13.3514
325.317	22.1263
328.691	37.2947
332.066	59.8972
335.441	105.347
338.816	185.523
342.191	282.298
345.565	391.937
348.94	558.397
352.315	765.482
355.69	801.966
359.065	467.278
362.44	220.037
365.814	103.637
369.189	52.852
372.564	27.5378
375.939	7.89343
379.314	6.33923
382.688	6.41882
386.063	14.1084
389.438	17.2054
392.813	12.7935
396.188	1.24951
399.562	5.79547
402.937	0.596619
406.312	16.3837
409.687	35.478
413.062	60.0594
416.437	91.6736
419.811	136.905
423.186	221.707
426.561	336.277
429.936	482.323
433.311	664.205
436.685	786.521
440.06	677.255
443.435	433.893
446.81	284.353
450.185	201.781
453.56	144.56
456.934	101.696
460.309	88.2149
463.684	77.7228
467.059	83.5225
470.434	80.4571
473.808	64.0292
477.183	46.9139
480.558	26.4276
483.933	21.1801
487.308	12.7637
490.683	6.16663
494.057	1.08185
497.432	6.26269
500.807	17.5638
504.182	23.9594
507.557	26.375
510.931	11.9072
514.306	4.78809
517.681	1.99817
521.056	0.459229
524.431	0.249268
527.806	0.276672
531.18	1.97778
534.555	0.109863
537.93	9.38049
541.305	0.915344
544.68	6.59192
548.054	5.29572
551.429	6.22553
554.804	0.120361
558.179	1.3916
561.554	1.04047
564.928	1.9281
568.303	2.25574
571.678	1.62152
575.053	3.7381
578.428	3.68573
581.803	7.07245
585.177	2.70404
588.552	6.76605
591.927	8.99927
595.302	6.23999
598.677	5.9986
602.052	6.44782
605.426	12.1621
608.801	18.093
612.176	25.1121
615.551	32.7597
618.926	35.2277
622.3	36.3165
625.675	41.0727
629.05	42.7419
632.425	41.0149
635.8	41.1508
639.174	36.8845
642.549	31.0026
645.924	24.5925
649.299	18.024
652.674	15.2205
656.048	15.1121
659.423	15.0733
662.798	12.7474
666.173	10.813
669.548	8.09351
672.923	8.83185
676.297	12.5739
679.672	9.50781
683.047	15.0307
686.422	13.0143
689.797	15.2487
693.172	20.6432
696.546	30.1685
699.921	34.6128
703.296	34.2615
706.671	39.7997
710.046	40.6799
713.42	34.8539
716.795	28.5381
720.17	16.1962
723.545	17.3967
726.92	11.4639
730.294	8.86328
733.669	4.7019
737.044	1.13263
740.419	4.01208
743.794	2.39758
747.169	1.37103
750.543	5.28662
753.918	0.861206
757.293	2.44428
760.668	2.37476
764.043	2.06458
767.418	3.59418
770.792	2.24878
774.167	9.12201
777.542	12.3047
780.917	16.1632
784.292	21.877
787.666	21.8107
791.041	25.7529
794.416	31.5455
797.791	32.142
801.166	33.8291
804.54	38.8177
807.915	53.3576
811.29	65.8484
814.665	75.8876
818.04	85.6111
821.415	87.8822
824.789	85.1484
828.164	79.1119
831.539	75.8135
834.914	63.2762
838.289	57.468
841.663	57.457
845.038	44.5623
848.413	35.168
851.788	34.2165
855.163	38.7659
858.538	40.3596
861.912	47.8092
865.287	50.1704
868.662	56.2844
872.037	52.4348
875.412	46.6862
878.786	49.1829
882.161	39.151
885.536	32.4451
888.911	25.723
892.286	18.884
895.66	13.5849
899.035	4.95477
902.41	5.36768
905.785	4.30652
909.16	0.484497
912.535	5.24457
915.909	1.09619
919.284	2.82703
922.659	0.421631
926.034	2.04907
929.409	2.9361
932.784	3.12286
936.158	1.54285
939.533	1.54114
942.908	4.90869
946.283	6.50714
949.658	14.0077
953.032	21.4493
956.407	40.1073
959.782	69.7733
963.157	121.868
966.532	200.863
969.907	325.581
973.281	373.507
976.656	230.373
980.031	162.387
983.406	160.911
986.781	208.987
990.155	328.531
993.53	628.077
996.905	1084.26
1000.28	1786.82
1003.65	2744.91
1007.03	2341
1010.4	987.671
1013.78	477.848
1017.15	269.495
1020.53	164.215
1023.9	102.83
1027.28	66.6333
1030.65	46.7342
1034.03	28.2787
1037.4	18.9012
1040.78	8.73554
1044.15	10.1514
1047.53	6.36621
1050.9	2.07614
1054.28	2.75265
1057.65	4.06805
1061.03	3.55551
1064.4	3.0351
1067.78	7.65411
1071.15	1.81903
1074.53	6.14127
1077.9	1.83343
1081.28	1.72101
1084.65	2.86011
1088.03	0.60379
1091.4	0.696899
1094.78	0.578918
1098.15	5.09183
1101.52	0.858276
1104.9	5.0242
1108.27	1.2865
1111.65	1.03293
1115.02	0.267487
1118.4	4.38037
1121.77	1.44449
1125.15	2.45184
1128.52	3.65738
1131.9	1.32721
1135.27	3.31589
1138.65	5.8865
1142.02	5.49704
1145.4	6.11996
1148.77	5.55908
1152.15	4.78632
1155.52	4.63266
1158.9	6.14902
1162.27	3.76502
1165.65	4.6246
1169.02	4.47916
1172.4	3.96429
1175.77	4.02918
1179.14	3.4483
1182.52	5.80493
1185.89	3.66873
1189.27	4.49469
1192.64	5.35205
1196.02	2.21045
1199.39	3.39529
1202.77	5.0022
1206.14	3.23672
1209.52	4.65832
1212.89	6.49533
1216.27	8.91574
1219.64	8.00876
1223.02	4.99048
1226.39	6.7818
1229.77	6.69257
1233.14	3.39023
1236.52	0.805878
1239.89	3.56924
1243.27	1.02908
1246.64	0.249054
1250.02	0.995514
1253.39	0.881012
1256.77	4.34384
1260.14	3.74545
1263.52	5.3223
1266.89	1.12115
1270.27	2.28207
1273.64	2.46573
1277.02	5.45026
1280.39	5.82489
1283.76	4.98953
1287.14	0.888611
1290.51	3.4855
1293.89	2.55115
1297.26	1.60111
1300.64	1.12897
