Measurement: Raman, 532 nm, unoriented, Raman Data Processed
Mineral: Zircon
Rruff sample: R050034
Ideal chemistry: ZrSiO_4_
Locality: Oaxaca, Mexico
Source: University of Arizona Mineral Museum
Description: Reddish brown single crystal fragments
Measured chemistry: Zr_1.00_Si_1.00_O_4_
Raman shift (cm-1)	intensity
155.929	0
158.822	84.7378
161.715	42.0806
164.607	5.33594
167.5	47.624
170.393	159.798
173.286	201.811
176.178	259.797
179.071	188.452
181.964	275.198
184.856	333.941
187.749	437.662
190.642	658.723
193.535	816.403
196.427	1228.51
199.32	1840.32
202.213	2256.59
205.105	2405.32
207.998	2889.14
210.891	3369.07
213.783	2723.24
216.676	1980.79
219.569	1811.11
222.462	1849.21
225.354	1448.75
228.247	798.356
231.14	473.019
234.032	326.953
236.925	189.428
239.818	206.213
242.71	162.268
245.603	143.204
248.496	131.711
251.388	168.741
254.281	188.1
257.174	178.167
260.067	217.414
262.959	230.201
265.852	250.78
268.745	162.864
271.637	142.655
274.53	142.046
277.423	79.1045
280.315	101.158
283.208	80.9048
286.101	25.0308
288.994	12.188
291.886	41.7891
294.779	9.28467
297.672	6.94434
300.564	27.23
303.457	27.5938
306.35	36.2978
309.243	41.1846
312.135	9.88086
315.028	55.5254
317.921	43.9224
320.813	59.8086
323.706	101.191
326.599	156.833
329.491	172.551
332.384	335.174
335.277	496.361
338.17	766.692
341.062	1192.5
343.955	1839.43
346.848	2510.79
349.74	3387.24
352.633	4258.36
355.526	3799.43
358.418	2343.45
361.311	1297.5
364.204	713.235
367.097	367.992
369.989	216.29
372.882	195.297
375.775	89.3252
378.667	70.4727
381.56	121.367
384.453	222.987
387.346	314.943
390.238	370.829
393.131	139.637
396.024	48.4053
398.916	34.791
401.809	18.1846
404.702	56.2959
407.594	216.02
410.487	285.123
413.38	456.478
416.272	625.526
419.165	960.716
422.058	1556.18
424.951	2257.88
427.843	3512.11
430.736	4798.03
433.629	6251.07
436.521	6853.13
439.414	5857.55
442.307	4188.77
445.2	2892.79
448.092	2016.34
450.985	1525.12
453.878	1171.42
456.77	880.33
459.663	799.733
462.556	757.492
465.448	717.898
468.341	735.791
471.234	627.536
474.127	523.602
477.019	349.198
479.912	181.047
482.805	112.276
485.697	93.6348
488.59	38.6816
491.483	34.3935
494.375	10.502
497.268	121.691
500.161	133.652
503.053	176.111
505.946	243.352
508.839	185.894
511.732	133.797
514.624	62.8897
517.517	8.03613
520.41	25.5176
523.302	21.1025
526.195	53.1455
529.088	39.7139
531.981	41.6553
534.873	81.6103
537.766	69.9707
540.659	44.8457
543.551	101.419
546.444	73.7246
549.337	119.071
552.229	40.1045
555.122	47.2041
558.015	95.5147
560.908	15.3779
563.8	43.0283
566.693	59.042
569.586	35.2441
572.478	13.456
575.371	32.1348
578.264	21.2275
581.156	46.8291
584.049	4.86231
586.942	46.7412
589.835	38.5713
592.727	38.2197
595.62	93.1231
598.513	87.8076
601.405	99.0625
604.298	102.746
607.191	175.279
610.083	209.469
612.976	332.902
615.869	272.106
618.762	348.002
621.654	398.986
624.547	366.719
627.44	409.91
630.332	365.708
633.225	377.171
636.118	424.102
639.01	355.718
641.903	351.04
644.796	243.077
647.689	235.098
650.581	186.842
653.474	185.976
656.367	121.642
659.259	158.921
662.152	154.632
665.045	73.7568
667.938	127.881
670.83	50.8994
673.723	124.441
676.616	126.537
679.508	44.6807
682.401	45.6143
685.294	146.595
688.186	155.065
691.079	126.84
693.972	193.903
696.865	143.94
699.757	217.579
702.65	292.723
705.543	343.893
708.435	282.946
711.328	212.967
714.221	261.509
717.113	146.531
720.006	148.007
722.899	131.576
725.792	140.399
728.684	54.9912
731.577	23.2393
734.47	39.6963
737.362	64.3359
740.255	27.4893
743.148	12.3496
746.04	40.9736
748.933	14.9805
751.826	6.29199
754.719	28.8867
757.611	49.4863
760.504	10.9346
763.397	7.28613
766.289	29.2617
769.182	93.79
772.075	20.917
774.967	84.251
777.86	94.6777
780.753	97.042
783.646	97.1768
786.538	188.664
789.431	213.773
792.324	117.009
795.216	169.909
798.109	180.448
801.002	194.385
803.894	254.574
806.787	354.417
809.68	329.114
812.573	445.964
815.465	590.673
818.358	519.311
821.251	703.485
824.143	610.249
827.036	584.083
829.929	479.366
832.822	474.644
835.714	438.67
838.607	448.629
841.5	319.789
844.392	228.87
847.285	184.342
850.178	152.017
853.07	117.233
855.963	307.071
858.856	236.843
861.749	332.435
864.641	270.638
867.534	399.083
870.427	318.81
873.319	302.498
876.212	364.722
879.105	182.329
881.997	198.122
884.89	209.312
887.783	102.334
890.676	92.7393
893.568	128.917
896.461	72.1592
899.354	49.7383
902.246	30.4541
905.139	1.53711
908.032	53.6836
910.924	16.4531
913.817	35.1611
916.71	3.25195
919.602	4.51562
922.495	61.8076
925.388	36.7705
928.281	71.332
931.173	1.59082
934.066	67.9541
936.959	27.999
939.851	125.786
942.744	95.2715
945.637	234.832
948.529	226.632
951.422	321.646
954.315	400.508
957.208	592.051
960.1	989.984
962.993	1580.93
965.886	2313.5
968.778	3476.34
971.671	3900.58
974.564	2991.02
977.457	2144.01
980.349	1989.24
983.242	2108.17
986.135	2670.3
989.027	3855.44
991.92	6331.35
994.813	11311
997.705	19036.4
1000.6	29586.2
1003.49	36784.3
1006.38	26436.2
1009.28	13748.2
1012.17	7615.93
1015.06	4639.25
1017.95	3088.94
1020.85	1980.92
1023.74	1357.14
1026.63	855.283
1029.53	602.25
1032.42	445.872
1035.31	305.384
1038.2	250.201
1041.1	228.164
1043.99	71.1934
1046.88	93.8281
1049.77	103.958
1052.67	37.7685
1055.56	97.8174
1058.45	4.0957
1061.35	27.6123
1064.24	27.1006
1067.13	48.0557
1070.02	6.20215
1072.92	1.26465
1075.81	8.14941
1078.7	33.5801
1081.59	72.2178
1084.49	113.147
1087.38	133.655
1090.27	72.2715
1093.16	3.42969
1096.06	55.956
1098.95	6.02148
1101.84	24.0791
1104.73	63.4102
1107.63	77.2207
1110.52	5.35059
1113.41	9.17383
1116.31	24.46
1119.2	19.2422
1122.09	74.5244
1124.98	53.0293
1127.88	57.1318
1130.77	77.3125
1133.66	100.311
1136.56	168.725
1139.45	118.806
1142.34	34.042
1145.23	92.0576
1148.13	73.4297
1151.02	109.864
1153.91	119.195
1156.8	60.0703
1159.7	189.871
1162.59	124.616
1165.48	140.227
1168.38	116.312
1171.27	87.626
1174.16	104.868
1177.05	114.739
1179.95	110.557
1182.84	89.2363
1185.73	23.2988
1188.62	55.249
1191.52	112.35
1194.41	59.9082
1197.3	41.6533
1200.19	20.3975
1203.09	78.7109
1205.98	134.099
1208.87	85.2744
1211.77	55.6445
1214.66	38.3662
1217.55	138.888
1220.44	57.6475
1223.34	81.8027
1226.23	83.1582
1229.12	20.1191
1232.01	59.9922
1234.91	18.2451
1237.8	57.1143
1240.69	14.3604
1243.59	53.5576
1246.48	10.0557
1249.37	52.6133
1252.26	69.3691
1255.16	5.77539
1258.05	70.2519
1260.94	71.2666
1263.83	108.823
1266.73	100.068
1269.62	71.9043
1272.51	101.247
1275.4	65.1494
1278.3	34.1006
1281.19	83.3379
1284.08	39.9756
1286.98	42.6348
1289.87	122.302
1292.76	119.855
1295.65	114.612
1298.55	152.144
1301.44	64.1894
1304.33	0.486328
1307.22	76.0615
