Measurement: Raman, 785 nm, unoriented, Raman Data Processed
Mineral: Zircon
Rruff sample: R050034
Ideal chemistry: ZrSiO_4_
Locality: Oaxaca, Mexico
Source: University of Arizona Mineral Museum
Description: Reddish brown single crystal fragments
Measured chemistry: Zr_1.00_Si_1.00_O_4_
Raman shift (cm-1)	intensity
171.642	0
174.534	157.33
177.427	287.303
180.32	430.826
183.212	361.664
186.105	159.211
188.998	197.18
191.891	261.592
194.783	437.434
197.676	661.033
200.569	1182.76
203.461	1854.15
206.354	1779.44
209.247	2170.35
212.139	2250.89
215.032	1250.66
217.925	748.783
220.818	1042.39
223.71	1024.18
226.603	354.941
229.496	194.06
232.388	362.41
235.281	386.457
238.174	271.606
241.066	128.688
243.959	24.0469
246.852	189.805
249.745	252.172
252.637	701.977
255.53	1175
258.423	1683.19
261.315	2437.37
264.208	3059.3
267.101	3935.82
269.993	4564.17
272.886	5180.93
275.779	5682.31
278.672	6292.76
281.564	6670.88
284.457	7229.22
287.35	7608.97
290.242	7828.09
293.135	8421.63
296.028	8885.81
298.921	9906.73
301.813	10552.8
304.706	11835
307.599	12474.5
310.491	12566.4
313.384	12320.4
316.277	11768.5
319.169	11085.9
322.062	10072.2
324.955	9183.91
327.847	8560.08
330.74	8163.98
333.633	7438.19
336.526	7139.51
339.418	6981.04
342.311	7119.77
345.204	7543.72
348.096	8123.43
350.989	9288.75
353.882	9964.05
356.774	9146.68
359.667	7676.71
362.56	6477.46
365.452	5580.16
368.345	4911.42
371.238	4559.28
374.131	4139.4
377.023	3816.32
379.916	3458.05
382.809	3003.15
385.701	2391.86
388.594	1962.93
391.487	1404.21
394.38	911.457
397.272	500.879
400.165	69.7305
403.058	232.148
405.95	247.578
408.843	445.789
411.736	501.137
414.628	161.93
417.521	254.551
420.414	770.225
423.307	1550.77
426.199	2382.06
429.092	3649.91
431.985	5230.99
434.877	6607.12
437.77	6952.15
440.663	5585.21
443.555	3648.88
446.448	2447.02
449.341	1539.88
452.234	1097.9
455.126	801.643
458.019	496.174
460.912	455.375
463.804	324.371
466.697	231.389
469.59	74.1582
472.483	12.4043
475.375	47.8105
478.268	98.9004
481.161	57.4668
484.053	7.43164
486.946	42.4922
489.839	144.797
492.731	289.35
495.624	266.272
498.517	318.393
501.409	447.57
504.302	443.371
507.195	593.293
510.088	744.549
512.98	698.998
515.873	824.07
518.766	870.506
521.658	900.377
524.551	842.779
527.444	861.754
530.337	879.363
533.229	840.051
536.122	812.916
539.015	594.402
541.907	512.264
544.8	412.746
547.693	292.861
550.585	181.945
553.478	202.832
556.371	106.916
559.263	71.2715
562.156	74.3398
565.049	45.7852
567.942	99.3945
570.834	96.2051
573.727	13.8555
576.62	67.9121
579.512	6.76172
582.405	206.418
585.298	357.623
588.19	396.799
591.083	537.176
593.976	632.303
596.869	952.033
599.761	1064.62
602.654	1240.57
605.547	1454.15
608.439	1819.76
611.332	1865.98
614.225	2192.8
617.117	2338.42
620.01	2458.84
622.903	2640.84
625.795	2808.15
628.688	2976.05
631.581	2934.99
634.474	2934.84
637.366	2980.29
640.259	2986.41
643.152	2924.46
646.044	2849.89
648.937	2636.25
651.83	2462.66
654.722	2337.02
657.615	2150.24
660.508	1819.36
663.401	1573.55
666.293	1403.22
669.186	1172.91
672.079	996.976
674.971	851.652
677.864	716.788
680.757	640.305
683.649	498.214
686.542	294.05
689.435	163.727
692.328	123.841
695.22	145.978
698.113	96.1846
701.006	81.0772
703.898	46.376
706.791	6.25879
709.684	23.7568
712.577	56.1758
715.469	19.46
718.362	12.5391
721.255	3.23144
724.147	113.966
727.04	33.5107
729.933	20.9902
732.825	80.5459
735.718	23.9014
738.611	0.9375
741.504	23.1768
744.396	53.3184
747.289	116.485
750.182	65.6289
753.074	89.0254
755.967	91.2607
758.86	104.874
761.752	99.3076
764.645	150.748
767.538	203.462
770.431	215.353
773.323	298.583
776.216	279.167
779.109	248.968
782.001	350.897
784.894	440.076
787.787	353.407
790.679	392.878
793.572	307.036
796.465	331.283
799.357	288.809
802.25	258.539
805.143	282.738
808.036	204.135
810.928	230.031
813.821	156.889
816.714	187.141
819.606	134.466
822.499	153.068
825.392	183.482
828.284	143.131
831.177	95.9746
834.07	149.177
836.963	145.009
839.855	62.4639
842.748	108.92
845.641	91.4141
848.533	99.3008
851.426	62.3877
854.319	103.428
857.212	43.5576
860.104	64.0264
862.997	80.0342
865.89	5.88184
868.782	85.1387
871.675	86.5644
874.568	2.42871
877.46	2.4082
880.353	38.3462
883.246	1.61328
886.139	13.439
889.031	12.3315
891.924	6.89795
894.817	17.3125
897.709	3.84424
900.602	43.0112
903.495	13.7769
906.388	16.8852
909.28	13.166
912.173	41.2134
915.066	83.9517
917.958	98.2539
920.851	76.1851
923.744	87.0708
926.636	56.6733
929.529	52.7241
932.422	15.5044
935.314	17.0684
938.207	13.8569
941.1	41.1313
943.993	13.3594
946.885	112.483
949.778	79.9917
952.671	145.021
955.563	234.991
958.456	498.699
961.349	708.398
964.241	1256.1
967.134	2259.3
970.027	3324.13
972.92	3226.49
975.812	2271.49
978.705	1620.28
981.598	1359.33
984.49	1474.89
987.383	1850.56
990.276	2645.94
993.168	4401.8
996.061	7699.35
998.954	12876.5
1001.85	20592
1004.74	23342.5
1007.63	15003.4
1010.52	7920.73
1013.42	4392.3
1016.31	2672.67
1019.2	1782.89
1022.1	1175.07
1024.99	792.814
1027.88	526.936
1030.77	346.433
1033.67	252.833
1036.56	124.06
1039.45	62.5615
1042.34	62.6724
1045.24	59.6045
1048.13	23.9311
1051.02	30.145
1053.91	19.9497
1056.81	9.61621
1059.7	19.1553
1062.59	34.1748
1065.49	64.2715
1068.38	24.1768
1071.27	19.4004
1074.16	9.47803
1077.06	74.3755
1079.95	83.5684
1082.84	109.603
1085.73	179.165
1088.63	148.549
1091.52	90.2461
1094.41	354.091
1097.31	104.788
1100.2	164.783
1103.09	162.629
1105.98	123.655
1108.88	200.226
1111.77	131.631
1114.66	142.686
1117.56	191.431
1120.45	234.355
1123.34	247.626
1126.23	239.95
1129.12	173.362
1132.02	230.541
1134.91	185.471
1137.8	166.252
1140.7	183.222
1143.59	168.888
1146.48	114.106
1149.37	142.053
1152.27	84.3774
1155.16	56.8799
1158.05	75.6724
1160.94	4.68506
1163.84	42.8174
1166.73	25.7236
1169.62	0.385254
1172.52	83.1768
1175.41	59.0776
1178.3	57.7627
1181.19	96.7026
1184.09	28.2026
1186.98	97.0181
1189.87	140.829
1192.77	113.668
1195.66	165.014
1198.55	110.319
1201.44	188.7
1204.34	79.9067
1207.23	222.962
1210.12	132.191
1213.01	104.708
1215.91	61.1523
1218.8	12.1904
