Measurement: Raman, 532 nm, unoriented, Raman Data Processed
Mineral: Zircon
Rruff sample: R150080
Ideal chemistry: ZrSiO_4_
Locality: unknown
Source: Michael Scott
Description: Colorless single waterworn euhedral crystal
Raman shift (cm-1)	intensity
97.4971	0
100.872	56.6724
104.247	0.132813
107.621	179.176
110.996	298.233
114.371	359.171
117.746	398.793
121.121	361.999
124.496	389.412
127.87	319.957
131.245	260.817
134.62	209.423
137.995	182.684
141.37	201.083
144.744	122.85
148.119	124.904
151.494	111.892
154.869	58.5303
158.244	34.2197
161.619	44.207
164.993	83.3081
168.368	48.4228
171.743	3.88477
175.118	16.3516
178.493	17.4458
181.868	72.8281
185.242	786.572
188.617	1193.91
191.992	1731.26
195.367	2806.01
198.742	6293.42
202.116	24318.3
205.491	8380.95
208.866	5565.16
212.241	10950.9
215.616	26445.4
218.99	12058.8
222.365	18249.4
225.74	48172.8
229.115	14014.5
232.49	2761.15
235.865	1028.39
239.239	523.991
242.614	275.514
245.989	156.968
249.364	100.102
252.739	59.8848
256.113	25.9414
259.488	49.8008
262.863	148.59
266.238	561.667
269.613	88.1728
272.988	52.5244
276.362	5.37305
279.737	43.6885
283.112	25.7451
286.487	6.59668
289.862	28.8809
293.236	19.0078
296.611	1.92969
299.986	47.0947
303.361	9.41211
306.736	34.2559
310.111	67.7285
313.485	103.858
316.86	148.014
320.235	216.926
323.61	309.229
326.985	514.736
330.359	821.787
333.734	1287.22
337.109	2494.94
340.484	5925.58
343.859	10058.4
347.233	14951.4
350.608	25829.7
353.983	56644.1
357.358	117997
360.733	53686
364.108	13927.9
367.482	5572.15
370.857	2694.87
374.232	1428.36
377.607	909.619
380.982	669.919
384.356	651.52
387.731	948.688
391.106	1967.65
394.481	2725.16
397.856	1196.86
401.231	270.543
404.605	34.2695
407.98	73.7764
411.355	32.8154
414.73	155.569
418.105	477.562
421.479	1007.49
424.854	2236.68
428.229	3788.77
431.604	6481.53
434.979	13179.6
438.354	27066
441.728	27926.7
445.103	10253.1
448.478	4445.85
451.853	2548.53
455.228	1560.55
458.603	1027.21
461.977	729.296
465.352	493.252
468.727	433.636
472.102	443.893
475.477	309.589
478.851	76.2969
482.226	13.6855
485.601	6.68848
488.976	3.31348
492.351	4.83984
495.726	38.4277
499.1	23.917
502.475	84.7168
505.85	184.231
509.225	241.085
512.6	179.517
515.974	125.065
519.349	128.618
522.724	113.005
526.099	163.311
529.474	142.547
532.848	166.881
536.223	211.923
539.598	250.057
542.973	378.96
546.348	546.666
549.722	510.669
553.097	313.394
556.472	181.886
559.847	130.861
563.222	100.503
566.597	47.5078
569.971	55.5732
573.346	19.8164
576.721	61.4746
580.096	69.6543
583.471	58.2754
586.846	58.7647
590.22	44.6221
593.595	2.85644
596.97	2.62793
600.345	1.70019
603.72	24.3193
607.094	46.457
610.469	60.4228
613.844	115.644
617.219	132.601
620.594	169.566
623.968	107.235
627.343	152.016
630.718	154.54
634.093	179.499
637.468	284.301
640.843	543.035
644.217	452.707
647.592	172.007
650.967	72.2168
654.342	76.0635
657.717	32.2754
661.091	6.62305
664.466	42.4228
667.841	75.8408
671.216	23.0566
674.591	5.12207
677.966	25.9102
681.34	13.3721
684.715	23.2881
688.09	27.3193
691.465	53.25
694.84	54.0498
698.215	70.5107
701.589	107.481
704.964	138.573
708.339	173.902
711.714	227.756
715.089	189.068
718.463	185.384
721.838	183.504
725.213	196.383
728.588	176.51
731.963	122.707
735.337	104.879
738.712	131.944
742.087	114.317
745.462	108.522
748.837	110.568
752.212	137.907
755.586	90.1357
758.961	100.017
762.336	74.6387
765.711	57.6016
769.086	16.9482
772.46	40.8467
775.835	6.59766
779.21	24.5645
782.585	6.64062
785.96	77.293
789.335	33.4736
792.709	49.3691
796.084	29.8867
799.459	71.1484
802.834	101.603
806.209	128.084
809.583	203.825
812.958	193.856
816.333	268.067
819.708	395.862
823.083	475.454
826.457	475.638
829.832	349.906
833.207	268.534
836.582	257.278
839.957	251.067
843.332	301.926
846.706	225.473
850.081	171.797
853.456	146.355
856.831	176.58
860.206	210.02
863.581	222.916
866.955	197.516
870.33	184.671
873.705	190.822
877.08	134.191
880.455	161.964
883.829	44.3389
887.204	16.0098
890.579	15.9746
893.954	1.875
897.329	6.00098
900.703	4.29297
904.078	6.88965
907.453	29.1699
910.828	16.3926
914.203	42.123
917.578	1.67676
920.952	74.8086
924.327	135.469
927.702	106.85
931.077	26.0488
934.452	1.55273
937.827	18.8887
941.201	49.502
944.576	118.547
947.951	78.3828
951.326	128.697
954.701	172.435
958.075	221.654
961.45	518.865
964.825	1681.1
968.2	2984.07
971.575	6978.44
974.949	24537.6
978.324	10196.1
981.699	2774.01
985.074	1923.67
988.449	1955.23
991.823	2575.32
995.198	5091.06
998.573	15096.8
1001.95	26675.1
1005.32	66778.7
1008.7	239568
1012.07	77503.3
1015.45	13292.6
1018.82	4529.39
1022.2	1890.89
1025.57	769.803
1028.95	306.963
1032.32	66.9805
1035.7	1.11328
1039.07	24.0742
1042.45	46.709
1045.82	38.5332
1049.19	16.9062
1052.57	2.78125
1055.94	48.4258
1059.32	16.4824
1062.69	41.2969
1066.07	26.3867
1069.44	54.6816
1072.82	12.4707
1076.19	80.0527
1079.57	121.789
1082.94	143.943
1086.32	190.99
1089.69	187.852
1093.07	148.066
1096.44	112.332
1099.82	167.353
1103.19	153.787
1106.57	102.123
1109.94	162.545
1113.32	190.684
1116.69	179.531
1120.07	114.103
1123.44	106.998
1126.82	48.709
1130.19	38.6562
1133.57	31.9023
1136.94	55.4961
1140.32	37.3418
1143.69	74.7207
1147.07	29.5469
1150.44	82.8223
1153.82	147.055
1157.19	112.584
1160.56	53.2773
1163.94	44.6309
1167.31	18.0391
1170.69	18.8398
1174.06	13.2715
1177.44	89.1387
1180.81	81.6426
1184.19	113.197
1187.56	166.359
1190.94	117.777
1194.31	55.4199
1197.69	31.6289
1201.06	23.9336
1204.44	1.46484
1207.81	29.9902
1211.19	17.9648
1214.56	50.3594
1217.94	96.0312
1221.31	175.394
1224.69	166.103
1228.06	120.838
1231.44	146.879
1234.81	112.51
1238.18	87.4062
1241.56	85.1582
1244.93	129.019
1248.31	99.793
1251.68	68.7793
1255.06	67.5293
1258.43	118.67
1261.81	99.7656
1265.18	0.029297
1268.56	26.0156
1271.93	47.1172
1275.31	48.6719
1278.68	81.6016
1282.06	52.7754
1285.43	58.8496
1288.81	58.9785
1292.18	62.8262
1295.56	47.7676
1298.93	67.6602
