Measurement: Raman, 532 nm, unoriented, Raman Data Processed
Mineral: Zircon
Rruff sample: R100128
Ideal chemistry: ZrSiO_4_
Locality: Cambodia
Source: William W. Pinch
Description: Blue cut gemstone
Raman shift (cm-1)	intensity
91.0352	0
94.41	2.05771
97.7848	4.83386
101.16	4.5423
104.534	8.90838
107.909	13.0271
111.284	16.2856
114.659	15.0051
118.034	16.7519
121.409	7.2126
124.783	3.92066
128.158	0.527164
131.533	1.85557
134.908	4.82478
138.283	2.22733
141.657	4.87752
145.032	15.2506
148.407	17.3642
151.782	34.9693
155.157	54.7815
158.532	68.9348
161.906	73.7211
165.281	80.5647
168.656	93.2411
172.031	101.531
175.406	105.516
178.78	105.83
182.155	152.894
185.53	298.817
188.905	357.04
192.28	507.825
195.655	781.086
199.029	1361.43
202.404	3226.8
205.779	756.985
209.154	896.5
212.529	1378.96
215.904	2067.47
219.278	1844.37
222.653	3058.47
226.028	4675.95
229.403	899.106
232.778	215.491
236.152	82.3501
239.527	37.2539
242.902	17.6989
246.277	10.9227
249.652	9.44085
253.026	9.29014
256.401	16.1186
259.776	25.7158
263.151	44.11
266.526	60.0695
269.901	29.7046
273.276	24.2946
276.65	13.3174
280.025	4.91892
283.4	7.21825
286.775	11.0165
290.15	11.0898
293.524	1.12962
296.899	5.48521
300.274	6.55382
303.649	7.13022
307.024	3.01097
310.399	3.491
313.773	1.83281
317.148	8.48476
320.523	16.9768
323.898	34.399
327.273	65.6188
330.647	112.838
334.022	212.333
337.397	510.17
340.772	1245.84
344.147	1945.77
347.522	3100.17
350.896	5228.19
354.271	9259.06
357.646	12450
361.021	4016.65
364.396	1088.92
367.77	433.682
371.145	190.954
374.52	76.4978
377.895	21.3212
381.27	3.29913
384.644	3.53345
388.019	15.4118
391.394	65.9153
394.769	73.3865
398.144	8.65262
401.519	5.37894
404.894	20.6545
408.268	87.6433
411.643	177.992
415.018	262.342
418.393	212.354
421.767	231.302
425.142	458.163
428.517	789.044
431.892	1407.7
435.267	2729.25
438.642	4353.16
442.017	2838.96
445.391	1166.34
448.766	725.266
452.141	512.417
455.516	241.44
458.891	120.396
462.265	96.0089
465.64	125.178
469.015	186.486
472.39	228.588
475.765	126.96
479.139	43.6731
482.514	28.1111
485.889	15.277
489.264	3.96429
492.639	0.378983
496.014	5.84624
499.388	45.6414
502.763	117.117
506.138	199.03
509.513	167.077
512.888	54.2497
516.263	6.27029
519.637	7.6026
523.012	7.8423
526.387	0.315094
529.762	4.43881
533.137	3.27411
536.511	3.47861
539.886	6.3242
543.261	27.0413
546.636	41.6514
550.011	27.1368
553.386	21.2101
556.76	18.2207
560.135	10.7113
563.51	7.03322
566.885	7.5276
570.26	5.70398
573.635	6.8132
577.009	4.75701
580.384	1.47945
583.759	0.528831
587.134	2.66717
590.509	5.08266
593.883	9.36604
597.258	12.8157
600.633	14.0718
604.008	12.5447
607.383	13.4496
610.758	18.7027
614.132	24.6015
617.507	35.3096
620.882	46.7127
624.257	62.0195
627.632	78.5839
631.006	87.7102
634.381	82.2271
637.756	71.3733
641.131	63.9965
644.506	44.6812
647.881	24.2536
651.255	16.1453
654.63	10.9956
658.005	7.48785
661.38	6.88855
664.755	1.56981
668.13	0.833054
671.504	0.250717
674.879	0.556976
678.254	0.18959
681.629	2.14533
685.004	5.517
688.378	10.1467
691.753	20.6365
695.128	32.262
698.503	53.5212
701.878	72.2913
705.253	91.7707
708.627	103.955
712.002	110.074
715.377	102.121
718.752	84.6239
722.127	62.8839
725.501	47.7549
728.876	34.4887
732.251	17.552
735.626	8.9388
739.001	0.536758
742.375	0.775711
745.75	2.23834
749.125	1.48286
752.5	0.478745
755.875	5.76765
759.25	5.25383
762.625	2.7811
765.999	0.45079
769.374	9.16537
772.749	8.15149
776.124	7.53461
779.499	12.0159
782.873	18.4186
786.248	30.937
789.623	38.2848
792.998	37.2382
796.373	40.3554
799.747	56.0931
803.122	84.9342
806.497	121.702
809.872	187.469
813.247	279.807
816.621	399.916
819.996	537.45
823.371	627.431
826.746	563.237
830.121	413.637
833.496	308.248
836.87	256.553
840.245	217.264
843.62	178.903
846.995	143.788
850.37	107.579
853.745	97.2228
857.119	95.2708
860.494	108.388
863.869	129.987
867.244	159.811
870.619	183.761
873.994	195.11
877.368	182.776
880.743	155.837
884.118	120.938
887.493	90.6113
890.868	68.7243
894.242	57.248
897.617	51.2269
900.992	49.6281
904.367	43.1779
907.742	32.9042
911.116	19.426
914.491	5.45042
917.866	2.06299
921.241	2.3214
924.616	0.264297
927.991	8.29108
931.365	8.02391
934.74	3.67612
938.115	1.19644
941.49	3.19643
944.865	8.0519
948.24	16.5804
951.614	24.8591
954.989	37.5507
958.364	56.0784
961.739	116.191
965.114	251.327
968.489	444.102
971.863	1068.13
975.238	2120.88
978.613	527.875
981.988	199.22
985.362	153.159
988.737	155.422
992.112	223.71
995.487	546.869
998.862	1278.08
1002.24	2423.57
1005.61	5227.19
1008.99	10381.8
1012.36	2164.67
1015.74	544.859
1019.11	255.222
1022.49	147.959
1025.86	94.7985
1029.23	63.3143
1032.61	44.2804
1035.98	33.8952
1039.36	27.716
1042.73	23.0298
1046.11	21.0629
1049.48	18.157
1052.86	17.2529
1056.23	12.5264
1059.61	6.27885
1062.98	2.556
1066.36	0.979874
1069.73	2.03213
1073.11	4.68027
1076.48	3.71413
1079.86	3.3663
1083.23	1.28105
1086.61	1.65414
1089.98	1.16768
1093.36	0.46666
1096.73	2.72347
1100.11	1.23753
1103.48	2.17766
1106.86	1.41296
1110.23	5.42307
1113.61	7.74982
1116.98	9.43181
1120.36	10.124
1123.73	18.0293
1127.11	16.6805
1130.48	18.0344
1133.86	20.4359
1137.23	22.0713
1140.6	26.8102
1143.98	32.1376
1147.35	43.2717
1150.73	56.4714
1154.1	68.9576
1157.48	84.2474
1160.85	108.308
1164.23	137.47
1167.6	176.333
1170.98	237.194
1174.35	316.973
1177.73	421.34
1181.1	536.548
1184.48	621.351
1187.85	629.657
1191.23	548.045
1194.6	431.847
1197.98	329.533
1201.35	252.555
1204.73	192.972
1208.1	153.722
1211.48	121.53
1214.85	99.2177
1218.22	79.6005
1221.6	69.5234
1224.97	52.9535
1228.35	40.129
1231.72	28.9579
1235.1	19.2665
1238.47	10.115
1241.85	5.27052
1245.22	0.912201
1248.6	3.74095
1251.97	1.71843
1255.35	0.723557
1258.72	1.49571
1262.1	3.53819
1265.47	7.53925
1268.85	9.89682
1272.22	15.2667
1275.6	18.632
1278.97	13.9436
1282.35	10.7386
1285.72	8.68492
1289.1	4.36937
1292.47	1.65607
1295.85	1.20552
1299.22	1.31615
1302.6	0
