Measurement: Raman, 780 nm, unoriented, Raman Data Processed
Mineral: Zircon
Rruff sample: R150080
Ideal chemistry: ZrSiO_4_
Locality: unknown
Source: Michael Scott
Description: Colorless single waterworn euhedral crystal
Raman shift (cm-1)	intensity
94.4526	0
97.8274	5.6073
101.202	19.8871
104.577	36.8158
107.952	26.7408
111.327	4.92053
114.701	0.835815
118.076	18.1562
121.451	41.0547
124.826	80.1973
128.201	116.557
131.576	173.923
134.95	255.344
138.325	328.121
141.7	377.957
145.075	396.175
148.45	352.444
151.825	269.06
155.199	176.376
158.574	98.5422
161.949	45.1677
165.324	8.0249
168.698	1.76355
172.073	16.4598
175.448	17.4058
178.823	6.05139
182.198	60.2101
185.573	218.036
188.947	265.104
192.322	440.39
195.697	743.407
199.072	1373.96
202.447	3858.07
205.821	2326.27
209.196	1480.02
212.571	2287.26
215.946	4284.63
219.321	2985.62
222.696	4188.02
226.07	9021.17
229.445	3351.2
232.82	857.311
236.195	418.716
239.57	248.417
242.945	160.59
246.319	114.63
249.694	106.754
253.069	125.191
256.444	149.776
259.818	198.462
263.193	245.748
266.568	288.65
269.943	285.872
273.318	287.128
276.693	304.848
280.067	298.563
283.442	282.228
286.817	241.627
290.192	206.584
293.567	161.813
296.942	101.558
300.316	49.2163
303.691	4.27197
307.066	41.3242
310.441	65.3778
313.816	75.6956
317.19	78.3383
320.565	61.8629
323.94	12.0861
327.315	85.9141
330.69	236.095
334.065	471.732
337.439	938.023
340.814	1813.34
344.189	2614.36
347.564	3885.62
350.938	6213.31
354.313	11546.2
357.688	21388.3
361.063	11870.9
364.438	4628.94
367.813	3227
371.187	2950.64
374.562	3116.3
377.937	3462.72
381.312	3776.93
384.687	3872.76
388.062	3774.53
391.436	3529.65
394.811	3028.53
398.186	2261.33
401.561	1643.89
404.935	1278.74
408.31	1052.95
411.685	957.148
415.06	956.663
418.435	1029.67
421.81	1211.49
425.184	1449.58
428.559	1722.48
431.934	2134.26
435.309	2771.92
438.684	3994.15
442.058	4106.84
445.433	2337.92
448.808	1517.87
452.183	1106.66
455.558	805.09
458.933	580.817
462.307	400.479
465.682	271.511
469.057	166.891
472.432	90.4799
475.807	26.3063
479.182	18.6578
482.556	43.0536
485.931	62.8925
489.306	60.4277
492.681	55.2493
496.055	36.2063
499.43	11.7407
502.805	15.912
506.18	57.6395
509.555	98.2136
512.93	114.428
516.304	141.522
519.679	147.014
523.054	170.326
526.429	177.997
529.804	189.538
533.178	187.476
536.553	192.291
539.928	185.177
543.303	171.913
546.678	159.733
550.053	120.411
553.427	68.7517
556.802	34.9111
560.177	10.7056
563.552	6.58881
566.927	3.54608
570.302	8.28705
573.676	15.2896
577.051	24.2508
580.426	31.419
583.801	37.4266
587.176	45.7912
590.55	49.614
593.925	57.3296
597.3	70.0653
600.675	76.3638
604.05	79.4755
607.424	81.4339
610.799	86.7267
614.174	86.0896
617.549	85.4305
620.924	77.2659
624.298	68.5661
627.673	52.6152
631.048	36.2147
634.423	35.0636
637.798	36.7048
641.173	46.9786
644.547	22.5938
647.922	6.54059
651.297	12.9744
654.672	12.1315
658.047	7.13184
661.421	27.6462
664.796	54.6869
668.171	92.4851
671.546	138.779
674.921	191.374
678.295	251.418
681.67	323.001
685.045	393.846
688.42	467.888
691.795	566.155
695.17	649.971
698.544	734.829
701.919	807.964
705.294	871.739
708.669	915.922
712.044	934.114
715.418	941.704
718.793	925.721
722.168	898.877
725.543	857.472
728.918	794.946
732.293	711.667
735.667	630.212
739.042	532.166
742.417	436.452
745.792	346.214
749.167	279.83
752.541	214.26
755.916	163.821
759.291	123.523
762.666	90.8572
766.041	62.2012
769.415	44.0254
772.79	23.395
776.165	11.488
779.54	7.68628
782.915	3.36481
786.29	4.63788
789.664	6.22665
793.039	6.70587
796.414	3.45438
799.789	4.36554
803.164	1.08072
806.538	6.19391
809.913	10.7661
813.288	11.898
816.663	18.6826
820.038	25.6262
823.413	31.3809
826.787	37.1791
830.162	36.4373
833.537	39.4618
836.912	40.6513
840.287	44.4273
843.661	40.4145
847.036	42.2589
850.411	36.3375
853.786	33.9785
857.161	27.8048
860.535	25.4536
863.91	23.1536
867.285	20.8412
870.66	19.6373
874.035	13.1972
877.409	13.9099
880.784	13.1692
884.159	12.0228
887.534	15.9162
890.909	16.0561
894.284	13.7775
897.658	15.5889
901.033	12.593
904.408	14.106
907.783	12.6712
911.158	11.3489
914.533	10.0772
917.907	16.153
921.282	19.5868
924.657	25.0557
928.032	18.2526
931.407	3.30408
934.781	0.213745
938.156	1.23612
941.531	3.05203
944.906	3.60391
948.281	3.29111
951.655	0.833191
955.03	3.79656
958.405	13.9408
961.78	53.8303
965.155	182.993
968.529	321.973
971.904	800.426
975.279	2837.21
978.654	1399.93
982.029	315.793
985.404	182.039
988.778	167.277
992.153	223.266
995.528	481.82
998.903	1205.04
1002.28	2113.01
1005.65	5164.8
1009.03	18647
1012.4	6947.1
1015.78	1181.76
1019.15	447.79
1022.53	236.638
1025.9	142.126
1029.28	91.1046
1032.65	64.8809
1036.03	44.7126
1039.4	36.6543
1042.78	23.087
1046.15	20.9615
1049.53	13.2868
1052.9	8.11935
1056.28	7.56203
1059.65	3.79547
1063.02	0.583862
1066.4	1.64664
1069.77	3.68874
1073.15	1.97508
1076.52	0.125687
1079.9	2.26581
1083.27	5.68867
1086.65	9.91188
1090.02	11.3925
1093.4	7.48224
1096.77	5.86989
1100.15	6.1449
1103.52	5.20363
1106.9	7.52589
1110.27	10.8628
1113.65	15.6852
1117.02	14.7869
1120.4	8.65225
1123.77	5.13925
1127.15	3.20798
1130.52	1.89546
1133.9	4.33192
1137.27	1.60442
1140.64	0.343704
1144.02	3.63547
1147.39	5.5432
1150.77	5.69293
1154.14	4.78276
1157.52	4.77388
1160.89	0.843246
1164.27	1.09845
1167.64	1.09012
1171.02	1.48303
1174.39	0.526062
1177.77	1.71426
1181.14	6.09712
1184.52	7.74287
1187.89	9.49817
1191.27	5.25536
1194.64	1.82236
1198.02	0.83168
1201.39	0.142929
1204.77	2.77219
1208.14	3.47484
1211.52	6.94635
1214.89	8.65552
1218.27	14.1488
1221.64	15.7127
1225.02	17.262
1228.39	18.7808
1231.77	11.5448
1235.14	12.9982
1238.52	10.8575
1241.89	8.55608
1245.26	7.67003
1248.64	5.40175
1252.01	5.60846
1255.39	6.28174
1258.76	5.4072
1262.14	4.15944
1265.51	4.1013
1268.89	1.01701
1272.26	0.073257
1275.64	0.466248
1279.01	2.28839
1282.39	1.4832
