Measurement: Raman, 785 nm, unoriented, Raman Data Processed
Mineral: Zoisite
Rruff sample: X060001
Ideal chemistry: Ca_2_Al_3_(Si_2_O_7_)(SiO_4_)O(OH)
Locality: unknown
Source: Michael Scott
Description: Colorless to blue bicolored gem stone
Raman shift (cm-1)	intensity
115.26	0
118.153	8.19531
121.045	17.8631
123.938	14.1792
126.831	24.7237
129.723	72.7911
132.616	186.589
135.509	174.405
138.401	103.065
141.294	102.481
144.187	209.023
147.08	670.712
149.972	898.079
152.865	625.13
155.758	326.521
158.65	183.32
161.543	168.856
164.436	76.0411
167.328	105.784
170.221	112.611
173.114	143.029
176.007	249.951
178.899	334.893
181.792	311.774
184.685	455.257
187.577	749.96
190.47	1126.87
193.363	1043.54
196.256	722.19
199.148	424.02
202.041	221.359
204.934	186.972
207.826	321.33
210.719	643.925
213.612	1243.14
216.504	1195.79
219.397	687.856
222.29	467.928
225.183	313.757
228.075	178.154
230.968	84.7632
233.861	36.7677
236.753	44.1775
239.646	62.9222
242.539	21.4913
245.431	48.6869
248.324	45.6278
251.217	57.283
254.109	180.547
257.002	369.964
259.895	652.68
262.788	491.729
265.68	144.609
268.573	83.2517
271.466	164.903
274.358	373.083
277.251	587.14
280.144	645.74
283.036	368.837
285.929	195.21
288.822	52.2196
291.715	16.8721
294.607	41.8329
297.5	176.786
300.393	323.175
303.285	297.843
306.178	454.229
309.071	882.831
311.964	1467.87
314.856	1307.55
317.749	727.255
320.642	488.606
323.534	504.764
326.427	687.946
329.32	941.838
332.212	1336.03
335.105	1891.4
337.998	2455.57
340.89	2829.82
343.783	3796.34
346.676	4077.65
349.569	2460.1
352.461	1174.58
355.354	613.819
358.247	346.252
361.139	132.353
364.032	80.1804
366.925	49.5592
369.817	27.8788
372.71	22.0418
375.603	33.3665
378.496	53.1348
381.388	28.6476
384.281	28.5769
387.174	168.408
390.066	473.382
392.959	892.046
395.852	985.336
398.745	423.707
401.637	119.471
404.53	69.4571
407.423	101.118
410.315	240.807
413.208	307.145
416.101	397.554
418.993	534.686
421.886	435.926
424.779	221.049
427.671	114
430.564	131.552
433.457	151.972
436.35	231.108
439.242	270.83
442.135	204.578
445.028	122.046
447.92	105.697
450.813	93.8253
453.706	185.998
456.599	200.552
459.491	66.5242
462.384	125.631
465.277	167.313
468.169	277.632
471.062	539.21
473.955	918.308
476.848	1312.71
479.74	1405.94
482.633	1629.11
485.526	2409.76
488.418	3523.16
491.311	4710.32
494.204	4877.95
497.096	3051.41
499.989	1468.47
502.882	709.247
505.774	299.429
508.667	129.147
511.56	21.4844
514.453	0.708618
517.345	48.6979
520.238	170.644
523.131	404.402
526.023	718.658
528.916	946.709
531.809	673.659
534.702	297.239
537.594	56.5392
540.487	14.4026
543.38	33.8911
546.272	11.3791
549.165	41.0647
552.058	128.524
554.95	130.494
557.843	183.828
560.736	302.643
563.629	615.322
566.521	1105.45
569.414	1914.33
572.307	2889.82
575.199	2847.48
578.092	1789.71
580.985	912.25
583.877	493.769
586.77	363.005
589.663	455.011
592.556	765.31
595.448	1301.88
598.341	1404.27
601.234	574.847
604.126	115.567
607.019	19.507
609.912	35.154
612.804	54.8075
615.697	224.938
618.59	533.933
621.482	884.71
624.375	1078.77
627.268	969.645
630.161	620.288
633.053	323.954
635.946	155.025
638.839	71.1615
641.731	8.39954
644.624	13.3384
647.517	11.1573
650.409	17.64
653.302	65.8021
656.195	172.94
659.088	318.892
661.98	272.338
664.873	367.862
667.766	634.903
670.658	1106.12
673.551	1867.25
676.444	2694.7
679.337	2815.01
682.229	1970.41
685.122	1236.35
688.015	811.026
690.907	622.458
693.8	441.222
696.693	284.047
699.585	151.887
702.478	81.0866
705.371	28.1972
708.264	4.32526
711.156	7.50732
714.049	8.0011
716.942	7.45843
719.834	5.11682
722.727	43.6519
725.62	23.1735
728.512	34.3955
731.405	0.385498
734.298	20.9202
737.191	20.4878
740.083	18.3099
742.976	78.5437
745.869	85.7457
748.761	67.4113
751.654	136.438
754.547	172.016
757.439	184.67
760.332	239.722
763.225	309.017
766.117	387.962
769.01	459.475
771.903	603.304
774.796	695.687
777.688	693.208
780.581	671.416
783.474	549.533
786.366	452.02
789.259	315.83
792.152	206.079
795.044	175.322
797.937	71.7139
800.83	39.1909
803.723	6.90076
806.615	12.4208
809.508	6.7124
812.401	21.1024
815.293	3.93884
818.186	1.57422
821.079	9.58734
823.972	15.1877
826.864	2.66547
829.757	18.9825
832.65	3.47034
835.542	5.37097
838.435	52.2268
841.328	88.6182
844.221	139.69
847.113	213.16
850.006	293.46
852.899	425.692
855.791	654.892
858.684	1025.69
861.577	1262.21
864.469	1454.37
867.362	1869.1
870.255	2550.47
873.148	2695.5
876.04	1939.97
878.933	1072.68
881.826	620.689
884.718	486.559
887.611	560.606
890.504	503.878
893.396	381.888
896.289	293.174
899.182	287.232
902.074	372.111
904.967	572.972
907.86	830.398
910.753	1072.53
913.645	1194.58
916.538	1396.57
919.431	2114.03
922.323	3526.88
925.216	5608.75
928.109	7072.22
931.001	5605.97
933.894	3134.04
936.787	1664.5
939.68	956.67
942.572	666.446
945.465	507.146
948.358	326.66
951.25	152.526
954.143	38.0903
957.036	1.26965
959.928	14.3967
962.821	12.2268
965.714	73.118
968.607	172.198
971.499	283.92
974.392	531.49
977.285	847.452
980.177	1245.79
983.07	1573.42
985.963	1423.66
988.856	988.821
991.748	555.071
994.641	266.598
997.534	184.615
1000.43	96.4322
1003.32	67.4618
1006.21	34.1629
1009.1	1.89002
1012	12.5644
1014.89	0.014282
1017.78	9.13605
1020.67	28.2769
1023.57	30.0682
1026.46	1.16596
1029.35	19.9786
1032.25	39.5746
1035.14	24.4807
1038.03	38.5727
1040.92	44.5184
1043.82	66.5905
1046.71	76.677
1049.6	70.559
1052.49	118.143
1055.39	152.593
1058.28	148.261
1061.17	192.244
1064.07	283.026
1066.96	390.509
1069.85	594.694
1072.74	686.281
1075.64	483.592
1078.53	290.218
1081.42	249.878
1084.32	300.359
1087.21	471.513
1090.1	764.182
1092.99	913.336
1095.88	653.51
1098.78	361.589
1101.67	188.407
1104.56	36.7895
1107.46	4.02319
1110.35	3.22766
1113.24	29.4514
1116.13	111.47
1119.03	188.879
1121.92	327.56
1124.81	577.372
1127.7	904.856
1130.6	1276.53
1133.49	1659.72
1136.38	2112.71
1139.28	2531.44
1142.17	2791.92
1145.06	2898.84
1147.95	2764.12
1150.85	2449.04
1153.74	2080.6
1156.63	1653.65
1159.53	1205.73
1162.42	871.298
1165.31	556.115
1168.2	336.689
1171.1	163.226
1173.99	67.9685
1176.88	3.7334
1179.77	0.004883
1182.67	9.39185
