Measurement: Raman, 785 nm, unoriented, Raman Data Processed
Mineral: Zoisite
Rruff sample: R050038
Ideal chemistry: Ca_2_Al_3_(Si_2_O_7_)(SiO_4_)O(OH)
Locality: Elf Shooting Creek, Clay County, North Carolina, USA
Source: University of Arizona Mineral Museum
Description: Tan colored fragments of single crystals
Measured chemistry: (Ca_.998_Na_.002_)_2_(Al_.982_Fe^3+^_.018_)_3_(Si_.982_Fe^3+^_.018_)_3_O_12_(OH)
Raman shift (cm-1)	intensity
163.254	0
166.147	42.8007
169.04	72.837
171.932	122.703
174.825	134.117
177.718	163.916
180.61	223.256
183.503	287.365
186.396	328.906
189.288	471.383
192.181	449.616
195.074	405.026
197.967	291.87
200.859	187.628
203.752	132.762
206.645	38.9893
209.537	65.8492
212.43	37.2906
215.323	47.6435
218.215	52.3086
221.108	52.3729
224.001	47.2297
226.894	26.9608
229.786	47.4429
232.679	10.1001
235.572	3.72241
238.464	47.9082
241.357	33.0598
244.25	0.501099
247.143	23.1351
250.035	57.1462
252.928	74.291
255.821	154.591
258.713	268.072
261.606	270.192
264.499	146.809
267.391	47.252
270.284	24.262
273.177	58.2334
276.07	113.395
278.962	158.989
281.855	234.36
284.748	329.443
287.64	306.483
290.533	229.162
293.426	178.603
296.318	158.145
299.211	215.194
302.104	306.649
304.997	448.268
307.889	677.511
310.782	827.456
313.675	699.638
316.567	466.829
319.46	294.935
322.353	285.667
325.245	252.403
328.138	405.627
331.031	582.979
333.923	829.589
336.816	1091.88
339.709	1336.29
342.602	1615.63
345.494	1918.8
348.387	1629.38
351.28	983.337
354.172	533.732
357.065	290.088
359.958	141.756
362.851	71.3821
365.743	13.1776
368.636	5.23364
371.529	13.123
374.421	4.30298
377.314	10.0492
380.207	7.13391
383.099	21.6852
385.992	47.9999
388.885	94.7891
391.777	165.146
394.67	271.041
397.563	271.985
400.456	157.301
403.348	106.944
406.241	128.777
409.134	153.363
412.026	164.344
414.919	165.827
417.812	211.75
420.704	219.302
423.597	214.861
426.49	153.521
429.383	136.775
432.275	160.469
435.168	175.493
438.061	161.311
440.953	109.477
443.846	46.5772
446.739	28.6194
449.632	18.575
452.524	15.5166
455.417	22.0607
458.31	14.3003
461.202	15.0175
464.095	64.0674
466.988	167.451
469.88	296.086
472.773	497.13
475.666	646.952
478.558	808.826
481.451	1027.65
484.344	1305.92
487.237	1814
490.129	2284.93
493.022	2184.87
495.915	1469.12
498.807	782.675
501.7	432.297
504.593	248.757
507.486	164.823
510.378	144.006
513.271	154.825
516.164	180.555
519.056	233.955
521.949	266.126
524.842	330.339
527.734	353.529
530.627	291.004
533.52	140.161
536.413	47.7653
539.305	9.39807
542.198	13.7959
545.091	20.0037
547.983	1.39673
550.876	32.2804
553.769	91.1206
556.661	279.124
559.554	318.487
562.447	519.703
565.34	766.813
568.232	972.562
571.125	1206.86
574.018	1003.77
576.91	637.667
579.803	365.7
582.696	236.876
585.588	214.095
588.481	248.999
591.374	357.649
594.266	486.732
597.159	452.982
600.052	267.279
602.945	78.3179
605.837	1.21155
608.73	16.5292
611.623	36.3197
614.515	68.0748
617.408	119.761
620.301	248.589
623.193	328.388
626.086	324.669
628.979	182.314
631.872	93.0166
634.764	38.9982
637.657	10.4994
640.55	4.82471
643.442	23.4731
646.335	1.60864
649.228	27.0768
652.12	37.9161
655.013	82.1533
657.906	82.2659
660.799	132.718
663.691	241.812
666.584	366.954
669.477	537.872
672.369	754.831
675.262	972.038
678.155	950.655
681.048	720.781
683.94	469.673
686.833	308.546
689.726	241.961
692.618	178.76
695.511	146.169
698.404	102.664
701.296	75.6631
704.189	41.9672
707.082	0.79126
709.975	5.45471
712.867	27.4823
715.76	0.452026
718.653	16.5334
721.545	29.762
724.438	34.3094
727.331	14.8887
730.223	2.52991
733.116	17.7898
736.009	12.285
738.902	10.6229
741.794	40.9119
744.687	31.3112
747.58	57.9882
750.472	75.0579
753.365	83.2451
756.258	91.5844
759.15	122.246
762.043	161.645
764.936	174.045
767.828	219.113
770.721	229.022
773.614	281.618
776.507	290.868
779.399	264.717
782.292	226.162
785.185	179.471
788.077	125.591
790.97	134.486
793.863	78.0696
796.755	56.1659
799.648	19.2479
802.541	31.9833
805.434	21.6902
808.326	8.49829
811.219	21.8615
814.112	8.49475
817.004	7.03284
819.897	5.12524
822.79	19.3324
825.683	2.30029
828.575	3.03442
831.468	3.98364
834.361	31.9956
837.253	18.2672
840.146	17.2548
843.039	15.6435
845.931	72.5758
848.824	92.1093
851.717	129.145
854.61	203.881
857.502	276.799
860.395	443.266
863.288	578.206
866.18	775.513
869.073	1027.66
871.966	1023.76
874.858	785.074
877.751	538.562
880.644	342.144
883.537	289.828
886.429	308.112
889.322	290.901
892.215	275.711
895.107	284.01
898	284.022
900.893	308.425
903.785	357.521
906.678	429.832
909.571	544.9
912.463	774.698
915.356	1080.32
918.249	1537.25
921.142	2125.24
924.034	2593.87
926.927	2740.26
929.82	2169.04
932.712	1372.16
935.605	777.395
938.498	419.563
941.39	275.789
944.283	172.625
947.176	94.7942
950.069	52.9699
952.961	21.9048
955.854	1.71033
958.747	5.48828
961.639	4.04773
964.532	46.433
967.425	68.4553
970.317	133.844
973.21	229.388
976.103	356.481
978.996	513.287
981.888	573.721
984.781	530.136
987.674	403.394
990.566	264.123
993.459	141.054
996.352	92.4006
999.245	70.8438
1002.14	57.535
1005.03	24.3618
1007.92	31.3321
1010.82	7.76294
1013.71	7.68152
1016.6	13.9146
1019.49	0.061646
1022.39	14.9331
1025.28	4.10083
1028.17	24.795
1031.06	34.0078
1033.96	17.8135
1036.85	30.9159
1039.74	31.0748
1042.63	21.4214
1045.53	32.9596
1048.42	56.8766
1051.31	42.3619
1054.21	49.4717
1057.1	28.564
1059.99	75.7361
1062.88	126.202
1065.78	149.096
1068.67	177.113
1071.56	183.998
1074.45	158.794
1077.35	160.011
1080.24	162.41
1083.13	165.409
1086.03	293.628
1088.92	338.154
1091.81	377.154
1094.7	329.196
1097.6	258.21
1100.49	156.703
1103.38	118.748
1106.27	100.067
1109.17	69.3464
1112.06	42.1564
1114.95	45.1024
1117.85	13.785
1120.74	26.2658
1123.63	2.39868
1126.52	34.3488
1129.42	33.9935
1132.31	13.4857
1135.2	8.99292
1138.09	21.363
1140.99	31.3388
1143.88	2.94702
1146.77	28.0258
1149.66	0.233398
1152.56	8.16907
1155.45	24.5537
1158.34	37.7916
1161.24	27.1556
1164.13	9.64014
1167.02	3.67102
1169.91	10.4695
1172.81	27.8444
1175.7	43.4899
1178.59	35.3157
1181.48	12.9485
1184.38	57.8364
1187.27	6.55981
1190.16	31.9974
1193.06	31.545
1195.95	36.0499
1198.84	6.57727
1201.73	41.9623
1204.63	25.1307
1207.52	7.0061
1210.41	38.2179
1213.3	32.22
1216.2	19.4152
1219.09	20.9279
1221.98	27.7939
1224.88	46.1726
1227.77	2.18372
1230.66	20.6023
1233.55	24.7627
1236.45	12.6144
1239.34	42.9302
1242.23	16.6804
1245.12	0
