Measurement: Raman, 514 nm, unoriented, Raman Data Processed
Mineral: Zoisite
Rruff sample: R050041
Ideal chemistry: Ca_2_Al_3_(Si_2_O_7_)(SiO_4_)O(OH)
Locality: Franklin County, Conway, Massachussetts, USA
Source: University of Arizona Mineral Museum
Description: Tan colored fragment
Measured chemistry: (Ca_.993_Mg_.004_Na_.002_Mn_.001_)_2_(Al_.980_Fe^3+^_.020_)_3_(Si_.986_Fe^3+^_.014_)_3_O_12_(OH)
Raman shift (cm-1)	intensity
126.758	0
130.922	246.488
135.083	3.793
139.243	186.51
143.401	445.027
147.557	766.557
151.711	539.92
155.863	332.527
160.013	292.453
164.161	228.598
168.308	260.133
172.452	451.439
176.594	477.078
180.734	671.754
184.872	771.273
189.008	982.865
193.143	1071.03
197.275	923.494
201.405	528.785
205.534	467.969
209.66	513.18
213.784	476.459
217.907	417.723
222.027	365.906
226.146	301.094
230.263	120.338
234.377	140.67
238.49	96.113
242.601	346.676
246.709	127.357
250.816	226.064
254.921	719.525
259.024	1013.89
263.125	752.059
267.224	492.418
271.321	253.988
275.416	272.744
279.51	349.652
283.601	530.709
287.69	542.381
291.778	442.516
295.863	37.297
299.947	292.648
304.029	598.748
308.108	1056.48
312.186	1415.72
316.262	904.369
320.336	561.357
324.408	487.65
328.478	618.189
332.546	1232.94
336.612	1616.89
340.677	2675.03
344.739	3669.33
348.799	2501.78
352.858	1261.35
356.915	388.994
360.969	136.689
365.022	60.432
369.073	78.215
373.122	216.002
377.169	108.402
381.215	36.225
385.258	196.26
389.299	91.902
393.339	127.932
397.376	199.25
401.412	117.617
405.446	153.887
409.478	232.207
413.508	455.33
417.536	486.689
421.562	630.6
425.586	553.49
429.609	474.428
433.629	516.406
437.648	411.473
441.665	68.77
445.68	0.156
449.693	29.955
453.704	467.904
457.713	77.307
461.721	87.535
465.726	167.691
469.73	481.84
473.731	1415.97
477.731	1412.08
481.729	1590.96
485.725	3153.51
489.72	5091.85
493.712	4680.64
497.703	2172.52
501.691	1211.08
505.678	603.703
509.663	300.168
513.646	407.508
517.627	589.775
521.607	517.965
525.584	927.064
529.56	947.498
533.534	430.074
537.506	70.199
541.476	135.4
545.444	100.941
549.41	61.486
553.375	317.246
557.337	609.945
561.298	750.09
565.257	1568.08
569.214	2892.38
573.17	2594.02
577.123	1676.09
581.075	1065.49
585.024	489.988
588.972	740.742
592.918	1018.2
596.863	1525.48
600.805	663.801
604.746	417.824
608.685	77.586
612.621	162.07
616.557	517.508
620.49	901.746
624.421	1047.06
628.351	1228.13
632.279	615.945
636.205	186.148
640.129	241.121
644.051	302.75
647.972	286.648
651.89	110.695
655.807	289.145
659.722	641.988
663.636	549.801
667.547	991.191
671.457	1528.99
675.365	2415.69
679.271	2566.81
683.175	1653.43
687.077	804.023
690.978	643.395
694.877	283.32
698.774	249.133
702.669	138.281
706.562	441.359
710.454	281.348
714.344	124.48
718.232	99.836
722.118	153.516
726.002	123.164
729.885	309.449
733.766	88.438
737.645	142.117
741.522	128.312
745.397	275.172
749.271	335.695
753.143	179.309
757.013	9.926
760.881	345.77
764.748	492.078
768.613	456.141
772.476	405.422
776.337	743.184
780.196	705.684
784.054	438.898
787.91	53.832
791.764	233.098
795.616	381.82
799.467	37.535
803.316	191.277
807.163	458.082
811.008	104.449
814.851	84.219
818.693	22.402
822.533	49.355
826.371	92.066
830.208	163.371
834.042	254.113
837.875	568.512
841.706	858.09
845.536	758.621
849.363	225.043
853.189	273.625
857.013	1539.58
860.836	1379.81
864.656	2083.05
868.475	3061.9
872.292	4204.56
876.108	2639.16
879.922	1958.73
883.733	1489.73
887.544	1604.85
891.352	1579.41
895.159	1434.76
898.964	1274.78
902.767	1456.16
906.568	1805.81
910.368	2261.88
914.166	2885.39
917.962	4447.15
921.757	6867.75
925.55	9875.61
929.341	9011.25
933.13	5412.65
936.918	2813.8
940.703	1971.26
944.488	1306.04
948.27	1276.24
952.051	1123.01
955.83	1103.48
959.607	731.656
963.383	530.125
967.156	1026.43
970.928	1055.76
974.699	1115.36
978.468	1523.58
982.234	2105.8
986	2472.16
989.763	1771.52
993.525	929.062
997.285	993.863
1001.04	1229.24
1004.8	545.863
1008.55	817.242
1012.31	794.324
1016.06	368.328
1019.81	394.77
1023.56	412.199
1027.31	670.609
1031.05	789.598
1034.79	1027.38
1038.53	885.156
1042.27	487.566
1046.01	877.77
1049.75	1138.9
1053.48	964.574
1057.22	723.453
1060.95	767.109
1064.68	1118.76
1068.4	1143.93
1072.13	1366.97
1075.86	1493.94
1079.58	1455.31
1083.3	1121.66
1087.02	1527.52
1090.74	1848.05
1094.45	1563.2
1098.17	1078.64
1101.88	949.941
1105.59	700.355
1109.3	312.754
1113.01	87.59
1116.71	248.375
1120.42	444.328
1124.12	396.539
1127.82	286.617
1131.52	319.789
1135.22	45.559
1138.91	319.898
1142.61	225.695
1146.3	369.555
1149.99	124.129
1153.68	424.484
1157.37	61.281
1161.06	744.879
1164.74	319.234
1168.42	582.898
1172.1	342.555
1175.78	749.129
1179.46	646.168
1183.14	890.305
1186.81	475.848
1190.48	793.18
1194.15	1016.65
1197.83	914.16
1201.49	430.055
1205.16	801.273
1208.82	124.879
1212.49	615.672
1216.15	683.594
1219.81	442.832
1223.46	5.516
1227.12	105.316
1230.78	482.293
1234.43	392.551
1238.08	465.027
1241.73	281.129
1245.38	124.723
1249.03	357.812
1252.67	188.863
