Measurement: Raman, 785 nm, unoriented, Raman Data Processed
Mineral: Zoisite
Rruff sample: R050041
Ideal chemistry: Ca_2_Al_3_(Si_2_O_7_)(SiO_4_)O(OH)
Locality: Franklin County, Conway, Massachussetts, USA
Source: University of Arizona Mineral Museum
Description: Tan colored fragment
Measured chemistry: (Ca_.993_Mg_.004_Na_.002_Mn_.001_)_2_(Al_.980_Fe^3+^_.020_)_3_(Si_.986_Fe^3+^_.014_)_3_O_12_(OH)
Raman shift (cm-1)	intensity
144.934	0
147.826	375.575
150.719	615.735
153.612	341.866
156.505	94.2881
159.397	8.56543
162.29	15.2532
165.183	0.861694
168.075	109.302
170.968	219.036
173.861	302.223
176.753	390.388
179.646	493.123
182.539	622.426
185.431	781.646
188.324	945.889
191.217	1080.28
194.11	979.001
197.002	704.968
199.895	458.898
202.788	265.482
205.68	160.26
208.573	87.6595
211.466	39.0406
214.358	51.0868
217.251	62.3008
220.144	68.2716
223.037	77.6299
225.929	72.5745
228.822	50.6653
231.715	4.78784
234.607	2.98096
237.5	49.2883
240.393	34.3984
243.286	15.574
246.178	30.1931
249.071	70.8987
251.964	147.031
254.856	212.184
257.749	388.938
260.642	469.667
263.534	375.122
266.427	138.284
269.32	67.8499
272.212	85.9758
275.105	189.072
277.998	310.782
280.891	450.811
283.783	520.727
286.676	604.158
289.569	530.373
292.461	406.707
295.354	380.17
298.247	463.236
301.139	694.929
304.032	1018.08
306.925	1501.84
309.818	1945.43
312.71	1992.38
315.603	1469.82
318.496	850.655
321.388	570.407
324.281	525.064
327.174	640.839
330.067	845.605
332.959	1138.8
335.852	1482.59
338.745	1815.25
341.637	2311.33
344.53	2756.87
347.423	2520.41
350.315	1584.01
353.208	865.538
356.101	451.471
358.993	244.826
361.886	108.891
364.779	23.0271
367.672	31.981
370.564	19.062
373.457	35.0866
376.35	29.9547
379.242	5.3927
382.135	28.1016
385.028	35.4853
387.921	92.9324
390.813	211.169
393.706	332.769
396.599	433.428
399.491	394.207
402.384	267.205
405.277	311.606
408.169	388.629
411.062	537.4
413.955	550.779
416.848	589.488
419.74	585.793
422.633	518.356
425.526	433.924
428.418	413.216
431.311	456.768
434.204	517.658
437.096	470.789
439.989	379.724
442.882	256.922
445.774	125.479
448.667	63.3561
451.56	36.3965
454.453	88.4026
457.345	73.3789
460.238	44.092
463.131	0.289795
466.023	110.769
468.916	326.276
471.809	600.451
474.702	959.259
477.594	1308.21
480.487	1621.25
483.38	2230.22
486.272	3025.07
489.165	4043.19
492.058	4355.57
494.95	3139.26
497.843	1758.26
500.736	940.781
503.628	520.669
506.521	294.924
509.414	269.208
512.307	274.984
515.199	326.852
518.092	362.421
520.985	483.257
523.877	601.741
526.77	721.658
529.663	593.412
532.556	408.467
535.448	220.115
538.341	73.8036
541.234	15.9611
544.126	40.1356
547.019	17.8771
549.912	2.14734
552.804	42.7344
555.697	185.386
558.59	339.555
561.482	581.214
564.375	874.805
567.268	1153.82
570.161	1500.68
573.053	1393.02
575.946	966.733
578.839	538.805
581.731	353.064
584.624	371.188
587.517	463.105
590.409	605.819
593.302	849.984
596.195	953.838
599.088	622.367
601.98	230.596
604.873	63.422
607.766	14.5225
610.658	19.1075
613.551	90.1472
616.444	153.806
619.337	275.056
622.229	382.199
625.122	400.077
628.015	321.46
630.907	140.763
633.8	88.2146
636.693	19.6732
639.585	30.0176
642.478	17.424
645.371	13.4545
648.264	58.0205
651.156	76.0094
654.049	108.442
656.942	96.2144
659.834	166.012
662.727	263.337
665.62	410.378
668.513	678.182
671.405	912.093
674.298	1263.36
677.191	1307.36
680.083	1051.77
682.976	706.417
685.869	486.536
688.761	393.8
691.654	333.835
694.547	239.539
697.439	169.325
700.332	107.842
703.225	53.0469
706.118	40.6721
709.01	4.93909
711.903	0.282349
714.796	7.42383
717.688	43.1097
720.581	30.0874
723.474	71.2249
726.366	43.3718
729.259	27.0055
732.152	26.1235
735.045	28.9125
737.937	22.7839
740.83	2.69702
743.723	42.8127
746.615	14.6152
749.508	60.8512
752.401	53.6525
755.293	75.9668
758.186	109.091
761.079	166.691
763.972	193.092
766.864	267.401
769.757	294.666
772.65	317.209
775.542	340.519
778.435	311.924
781.328	242.324
784.221	212.893
787.113	151.785
790.006	119.294
792.899	83.8866
795.791	71.8182
798.684	37.4138
801.577	24.2345
804.469	7.17273
807.362	2.79541
810.255	26.3324
813.148	0.265381
816.04	7.08191
818.933	14.7979
821.826	11.8027
824.718	1.86316
827.611	3.60754
830.504	2.53394
833.396	3.7616
836.289	24.7331
839.182	78.1561
842.074	38.3184
844.967	93.6099
847.86	112.209
850.753	197.491
853.645	295.523
856.538	421.026
859.431	612.587
862.323	842.505
865.216	1137.41
868.109	1477.02
871.001	1664.05
873.894	1445.4
876.787	943.015
879.68	628.202
882.572	518.111
885.465	523.189
888.358	544.995
891.25	516.365
894.143	514.669
897.036	476.815
899.928	495.696
902.821	514.946
905.714	582.553
908.607	684.128
911.499	921.222
914.392	1307.96
917.285	1848.77
920.177	2507.13
923.07	3155.16
925.963	3461.07
928.856	2853.53
931.748	1895.14
934.641	1121.52
937.534	592.553
940.426	341.705
943.319	184.128
946.212	122.613
949.104	42.5199
951.997	11.311
954.89	19.933
957.783	15.5405
960.675	15.0653
963.568	65.0837
966.461	112.311
969.353	230.636
972.246	332.805
975.139	545.505
978.031	771.243
980.924	898.509
983.817	940.35
986.71	740.746
989.602	472.479
992.495	286.485
995.388	199.573
998.28	87.7715
1001.17	78.3536
1004.07	39.8203
1006.96	27.3875
1009.85	21.3434
1012.74	7.47192
1015.64	4.3667
1018.53	17.3563
1021.42	35.0353
1024.32	10.5142
1027.21	3.33148
1030.1	34.5145
1032.99	4.73498
1035.88	21.292
1038.78	28.7508
1041.67	25.8656
1044.56	77.421
1047.46	51.2011
1050.35	71.2001
1053.24	65.5024
1056.13	106.833
1059.03	154.684
1061.92	204.533
1064.81	293.888
1067.7	356.564
1070.6	432.827
1073.49	389.572
1076.38	313.409
1079.28	303.794
1082.17	333.971
1085.06	408.475
1087.95	506.957
1090.85	600.741
1093.74	549.373
1096.63	375.25
1099.53	257.211
1102.42	180.275
1105.31	141.74
1108.2	71.347
1111.1	67.2904
1113.99	40.5408
1116.88	45.805
1119.77	38.188
1122.67	49.4956
1125.56	15.3413
1128.45	56.0374
1131.34	34.3498
1134.24	13.392
1137.13	34.6594
1140.02	30.9322
1142.91	44.7775
1145.81	42.6404
1148.7	37.0131
1151.59	42.1592
1154.49	36.0924
1157.38	44.8593
1160.27	21.4261
1163.16	5.63159
1166.06	9.06378
1168.95	10.249
1171.84	2.85181
1174.73	25.7746
1177.63	13.2043
1180.52	0.710388
1183.41	18.0697
1186.31	9.17859
1189.2	5.87042
1192.09	30.8011
1194.98	10.9987
1197.88	19.1558
1200.77	27.7092
1203.66	28.3664
1206.56	16.4953
1209.45	8.94074
1212.34	43.0067
1215.23	22.7481
1218.12	12.7984
1221.02	42.314
1223.91	36.5867
1226.8	54.0278
1229.7	47.2126
1232.59	16.0048
1235.48	23.4383
1238.37	44.658
1241.27	22.576
1244.16	32.5283
