Measurement: Raman, 532 nm, unoriented, Raman Data Processed
Mineral: Zoisite
Rruff sample: X060001
Ideal chemistry: Ca_2_Al_3_(Si_2_O_7_)(SiO_4_)O(OH)
Locality: unknown
Source: Michael Scott
Description: Colorless to blue bicolored gem stone
Raman shift (cm-1)	intensity
101.756	0
105.131	49.1375
108.506	3.85168
111.881	24.9897
115.255	331.985
118.63	1410.38
122.005	2073.16
125.38	1431.7
128.755	982.06
132.13	734.527
135.504	652.102
138.879	904.623
142.254	1454.3
145.629	2316.71
149.004	3655.57
152.379	1923.6
155.753	894.801
159.128	613.501
162.503	491.762
165.878	424.898
169.252	363.911
172.627	372.302
176.002	530.61
179.377	722.25
182.752	864.003
186.127	1353.45
189.501	2399.45
192.876	2668.92
196.251	1260.3
199.626	744.357
203.001	541.518
206.375	522.966
209.75	780.921
213.125	1417.15
216.5	1466.75
219.875	576.709
223.25	260.505
226.624	54.0457
229.999	64.6323
233.374	63.8606
236.749	33.0012
240.124	30.2056
243.498	21.9443
246.873	4.29126
250.248	189.602
253.623	506.707
256.998	1094.05
260.373	1838.64
263.747	985.237
267.122	236.636
270.497	198.777
273.872	441.372
277.247	897.668
280.621	1112.68
283.996	1071.26
287.371	1031.27
290.746	520.409
294.121	132.693
297.495	146.3
300.87	226.047
304.245	167.75
307.62	286.481
310.995	848.112
314.37	1014.05
317.744	458.952
321.119	395.312
324.494	709.043
327.869	1423.19
331.244	2594.89
334.618	4486.49
337.993	6011
341.368	4130.78
344.743	3576.95
348.118	2644.89
351.493	1080.62
354.867	424.229
358.242	153.918
361.617	53.8206
364.992	7.49707
368.366	37.4409
371.741	53.8723
375.116	55.396
378.491	17.1186
381.866	86.354
385.241	193.059
388.615	516.545
391.99	1259.43
395.365	1903.05
398.74	896.259
402.115	489.107
405.49	560.046
408.864	1029.32
412.239	1491.46
415.614	2343.84
418.989	3756.64
422.364	2962.57
425.738	1417.55
429.113	900.871
432.488	1013.16
435.863	1263.09
439.238	1426.07
442.612	1126.87
445.987	764.026
449.362	575.179
452.737	667.83
456.112	945.503
459.486	196.515
462.861	118.83
466.236	47.0273
469.611	113.197
472.986	532.579
476.361	1275.12
479.735	1849.51
483.11	2955.42
486.485	4970.3
489.86	7316.39
493.235	9713.16
496.61	6310.55
499.984	2747.8
503.359	1134.23
506.734	521.812
510.109	189.611
513.484	115.698
516.858	224.232
520.233	458.419
523.608	799.125
526.983	1531.55
530.358	1666.83
533.732	875.078
537.107	480.427
540.482	144.23
543.857	22.1794
547.232	22.3386
550.606	121.603
553.981	167.477
557.356	176.364
560.731	401.941
564.106	871.307
567.481	1760.53
570.855	3059.81
574.23	3875.52
577.605	2306.18
580.98	943.753
584.355	487.107
587.729	364.503
591.104	554.605
594.479	1208.46
597.854	1534.68
601.229	454.974
604.604	15.0024
607.978	59.123
611.353	1.75317
614.728	209.349
618.103	620.954
621.477	1128.78
624.852	1250.82
628.227	907.856
631.602	414.647
634.977	171.826
638.352	21.2168
641.726	40.5708
645.101	21.8232
648.476	43.0361
651.851	149.203
655.226	360.291
658.601	656.096
661.975	788.339
665.35	1042.23
668.725	1733.16
672.1	2837.5
675.475	4463.86
678.849	4931.82
682.224	3158.68
685.599	1665.49
688.974	1035.08
692.349	681.818
695.723	507.368
699.098	214.5
702.473	109.228
705.848	16.3584
709.223	21.4795
712.597	17.2336
715.972	71.7729
719.347	210.455
722.722	375.342
726.097	434.255
729.472	296.46
732.846	79.9216
736.221	67.6526
739.596	26.8301
742.971	13.7354
746.346	31.978
749.721	88.0889
753.095	13.0854
756.47	179.097
759.845	240.558
763.22	308.219
766.595	428.409
769.969	614.079
773.344	704.886
776.719	721.005
780.094	676.952
783.469	504.485
786.843	359.99
790.218	230.862
793.593	147.245
796.968	113.578
800.343	33.971
803.717	22.0171
807.092	9.83521
810.467	18.708
813.842	6.80347
817.217	56.5784
820.592	41.3132
823.966	20.4421
827.341	15.0823
830.716	31.041
834.091	78.6733
837.466	186.322
840.841	308.975
844.215	564.93
847.59	669.026
850.965	857.235
854.34	1247.28
857.715	1953.97
861.089	2583.13
864.464	2802.94
867.839	3705.7
871.214	4925.84
874.589	4360.23
877.963	2614.22
881.338	1952.46
884.713	2088.25
888.088	2443.76
891.463	2051.81
894.837	1343.1
898.212	989.186
901.587	976.72
904.962	1249.21
908.337	1766.71
911.712	1983.3
915.086	1882.45
918.461	2329.13
921.836	3545.57
925.211	5879.04
928.586	7351.05
931.96	4599.78
935.335	2144.78
938.71	1113.65
942.085	863.244
945.46	758.855
948.835	439.186
952.209	65.3589
955.584	83.6689
958.959	71.9133
962.334	63.3062
965.709	268.084
969.083	643.312
972.458	1212.06
975.833	2141.57
979.208	3319.43
982.583	4368.61
985.957	4064.13
989.332	2624.34
992.707	1400.89
996.082	745.634
999.457	368.871
1002.83	190.885
1006.21	63.9119
1009.58	10.0835
1012.96	4.22168
1016.33	23.8398
1019.71	9.12231
1023.08	9.68335
1026.45	10.2434
1029.83	27.5452
1033.2	12.4263
1036.58	43.3948
1039.95	60.6252
1043.33	141.11
1046.7	247.236
1050.08	405.582
1053.45	713.026
1056.83	1297.29
1060.2	2476.35
1063.58	4167.62
1066.95	6966.24
1070.33	11590.5
1073.7	12145.5
1077.08	6769.71
1080.45	4381.75
1083.83	4107.28
1087.2	5241.82
1090.58	7043.97
1093.95	7347.34
1097.33	4482.71
1100.7	2351.97
1104.08	1424.55
1107.45	836.974
1110.83	550.829
1114.2	346.312
1117.58	237.385
1120.95	164.021
1124.33	110.177
1127.7	69.2712
1131.07	54.3489
1134.45	35.605
1137.82	21.6804
1141.2	8.42163
1144.57	16.2848
1147.95	9.52417
1151.32	1.29065
1154.7	10.519
1158.07	18.1315
1161.45	13.8651
1164.82	8.39502
1168.2	9.85828
1171.57	9.70703
1174.95	48.568
1178.32	26.2614
1181.7	65.9003
1185.07	69.1041
1188.45	54.6512
1191.82	43.7527
1195.2	52.468
1198.57	72.0041
1201.94	61.5475
1205.32	36.8746
1208.69	26.7092
1212.07	35.6718
1215.44	39.3727
1218.82	39.7789
1222.19	42.6591
1225.57	0.156372
1228.94	37.6835
1232.32	41.4663
1235.69	22.4123
1239.07	72.7174
1242.44	51.6481
1245.82	67.6117
1249.19	62.8715
1252.57	48.0903
1255.94	28.3658
1259.32	82.6173
1262.69	23.8971
1266.07	20.8259
1269.44	38.5648
1272.82	56.9719
1276.19	73.2661
1279.57	37.1383
1282.94	43.0472
1286.32	21.1743
1289.69	29.7889
1293.07	23.2217
1296.44	35.5652
1299.82	0.012451
