Measurement: Raman, 514 nm, unoriented, Raman Data Processed
Mineral: Zoisite
Rruff sample: R050038
Ideal chemistry: Ca_2_Al_3_(Si_2_O_7_)(SiO_4_)O(OH)
Locality: Elf Shooting Creek, Clay County, North Carolina, USA
Source: University of Arizona Mineral Museum
Description: Tan colored fragments of single crystals
Measured chemistry: (Ca_.998_Na_.002_)_2_(Al_.982_Fe^3+^_.018_)_3_(Si_.982_Fe^3+^_.018_)_3_O_12_(OH)
Raman shift (cm-1)	intensity
110.082	0
114.254	1989.93
118.424	3971.76
122.592	2751.68
126.758	816.004
130.922	308.027
135.083	194.55
139.243	351.801
143.401	1054.15
147.557	2317.37
151.711	1609.51
155.863	638.187
160.013	84.639
164.161	75.651
168.308	5.966
172.452	184.906
176.594	403.532
180.734	853.129
184.872	1684.62
189.008	2401.86
193.143	2519.04
197.275	1617.62
201.405	859.917
205.534	599.779
209.66	624.962
213.784	554.079
217.907	345.178
222.027	280.97
226.146	210.105
230.263	122.062
234.377	0.035
238.49	95.974
242.601	60.567
246.709	424.592
250.816	794.286
254.921	1743.16
259.024	2529
263.125	2046.89
267.224	1275.91
271.321	824.089
275.416	961.606
279.51	1442.67
283.601	1802.85
287.69	1617.27
291.778	1181.74
295.863	733.918
299.947	1123.72
304.029	2453.63
308.108	4441.77
312.186	5023.18
316.262	3168.81
320.336	1739.62
324.408	1458.57
328.478	1645.45
332.546	2834.25
336.612	4336.59
340.677	6689.64
344.739	9052.61
348.799	6853.56
352.858	3739.79
356.915	1468.42
360.969	635.367
365.022	107.331
369.073	85.714
373.122	244.062
377.169	189.004
381.215	160.519
385.258	1.43
389.299	548.488
393.339	1161.07
397.376	1348.98
401.412	646.332
405.446	760.001
409.478	1189.51
413.508	1433.19
417.536	2174.08
421.562	2146.25
425.586	1886.03
429.609	2012.18
433.629	2328.55
437.648	1806.17
441.665	1392.22
445.68	807.021
449.693	660.008
453.704	992.039
457.713	704.107
461.721	418.292
465.726	672.61
469.73	1780.95
473.731	3379.3
477.731	4194.66
481.729	6101.09
485.725	11113.7
489.72	16612.3
493.712	14177.2
497.703	7648.6
501.691	3646.19
505.678	2038.07
509.663	1346.04
513.646	1162.01
517.627	1527.96
521.607	2047.89
525.584	2732.78
529.56	2576.03
533.534	1534.52
537.506	947.137
541.476	537.742
545.444	501.176
549.41	443.211
553.375	784.111
557.337	1045.35
561.298	1909.48
565.257	3928.39
569.214	6325.78
573.17	6045.02
577.123	3699
581.075	1931.37
585.024	1138.82
588.972	1605.77
592.918	2635.07
596.863	3318.9
600.805	1568.51
604.746	654.201
608.685	289.641
612.621	252.973
616.557	916.195
620.49	1710.3
624.421	2146.29
628.351	1537.16
632.279	758.896
636.205	114.506
640.129	123.781
644.051	35.918
647.972	422.025
651.89	677.062
655.807	797.557
659.722	881.484
663.636	945.582
667.547	1711.01
671.457	3264.21
675.365	5317.93
679.271	4920.43
683.175	3030.68
687.077	1763.81
690.978	1377.15
694.877	1006.91
698.774	515.039
702.669	250.428
706.562	168.604
710.454	210.369
714.344	149.4
718.232	90.205
722.118	112.508
726.002	104.533
729.885	69.229
733.766	81.482
737.645	109.072
741.522	1.188
745.397	31.822
749.271	28.979
753.143	18.795
757.013	204.59
760.881	281.338
764.748	629.84
768.613	1007.1
772.476	929.105
776.337	1098.88
780.196	949.402
784.054	779.688
787.91	396.734
791.764	171.547
795.616	56.045
799.467	82.961
803.316	275.357
807.163	62.904
811.008	164.271
814.851	40.484
818.693	1.342
822.533	151.43
826.371	368.975
830.208	701.312
834.042	585.461
837.875	836.648
841.706	1197.84
845.536	1255.96
849.363	1399.99
853.189	1798.86
857.013	3273.62
860.836	4124.85
864.656	5420.46
868.475	7857.85
872.292	9246.92
876.108	6879.28
879.922	4748.92
883.733	4299.62
887.544	4374.71
891.352	4533.44
895.159	4584.64
898.964	4659.66
902.767	5110.72
906.568	5691.98
910.368	6554.18
914.166	7843.82
917.962	10795.4
921.757	16275
925.55	20615.5
929.341	18226.1
933.13	11331.6
936.918	6871.05
940.703	4565.53
944.488	3495.73
948.27	3040.89
952.051	2400.95
955.83	2032.61
959.607	1830.72
963.383	1728.59
967.156	1922.29
970.928	2533.88
974.699	3167.64
978.468	4650.53
982.234	6218.79
986	5724.86
989.763	4058.43
993.525	2524.99
997.285	1821.93
1001.04	1550.21
1004.8	924.852
1008.55	892.309
1012.31	576.953
1016.06	537.252
1019.81	502.699
1023.56	420.941
1027.31	498.854
1031.05	688.33
1034.79	840.529
1038.53	549.732
1042.27	860.039
1046.01	1130.08
1049.75	1332.08
1053.48	1132.69
1057.22	1103.66
1060.95	1550.06
1064.68	2511.99
1068.4	4030.72
1072.13	4465.34
1075.86	3605.27
1079.58	2878.53
1083.3	2590.08
1087.02	3481.25
1090.74	4974.63
1094.45	4829.12
1098.17	3303.41
1101.88	2062.39
1105.59	1436.32
1109.3	726.988
1113.01	511.162
1116.71	486.469
1120.42	221.459
1124.12	855.785
1127.82	255.447
1131.52	97.9
1135.22	139.02
1138.91	4.084
1142.61	66.057
1146.3	165.492
1149.99	61.738
1153.68	11.168
1157.37	14.074
1161.06	117.408
1164.74	97.363
1168.42	159.49
1172.1	70.291
1175.78	128.053
1179.46	185.598
1183.14	354.553
1186.81	291.846
1190.48	47.979
1194.15	80.342
1197.83	302.033
1201.49	42.027
1205.16	325.566
1208.82	141.732
1212.49	328.936
1216.15	329.596
1219.81	239.766
1223.46	150.104
1227.12	239.068
1230.78	178.076
1234.43	357.475
1238.08	435.406
1241.73	332.57
1245.38	222.07
1249.03	26.854
1252.67	209.996
1256.31	109.035
1259.95	462.557
1263.6	166.395
1267.23	75.176
1270.87	177.104
1274.51	103.865
1278.14	31.77
1281.77	322.449
1285.4	269.076
1289.03	294.482
1292.66	156.295
1296.28	182.16
1299.91	83.635
1303.53	17.988
1307.15	21.518
1310.77	344.213
1314.38	105.479
1318	153.281
1321.61	152.4
1325.23	3.258
1328.84	153.363
1332.45	44.07
1336.06	133.182
1339.66	191.652
1343.27	202.592
1346.87	134.625
1350.47	337.369
1354.07	389.664
1357.67	532.617
1361.26	649.617
1364.86	448.84
1368.45	569.711
1372.04	424.828
1375.63	614.488
1379.22	321.199
1382.81	592.688
1386.39	534.785
1389.98	354.664
1393.56	316.289
1397.14	301.816
1400.72	197.801
1404.3	286.273
1407.87	17.352
1411.45	74.621
1415.02	226.879
1418.59	31.93
1422.16	296.438
1425.73	315.824
1429.29	207.984
1432.86	350.52
1436.42	484.273
1439.98	345.797
1443.54	318.762
1447.1	411.473
1450.66	152.625
1454.21	296.344
1457.77	175.105
1461.32	603.5
1464.87	510.059
1468.42	97.602
1471.96	0
