Measurement: Raman, 532 nm, unoriented, Raman Data Processed
Mineral: Zoisite
Rruff sample: R060567
Ideal chemistry: Ca_2_Al_3_(Si_2_O_7_)(SiO_4_)O(OH)
Locality: Umba Valley, Tanzania
Source: Michael Scott
Description: Purple prismatic crystals
Measured chemistry: Ca_2.00_Al_3.00_(Si_1.00_O_4_)(Si_2.00_O_7_)O(OH)
Raman shift (cm-1)	intensity
120.558	0
123.45	308.144
126.343	44.0898
129.236	82.1559
132.128	3.03088
135.021	17.2038
137.914	106.868
140.806	374.132
143.699	939.497
146.592	2026.41
149.484	2700.19
152.377	1247.37
155.27	647.553
158.163	348.706
161.055	247.752
163.948	146.64
166.841	86.283
169.733	125.101
172.626	230.557
175.519	354.066
178.412	594.535
181.304	738.003
184.197	1074.07
187.09	1457.33
189.982	1842.5
192.875	1684.1
195.768	1226.52
198.661	823.85
201.553	500.952
204.446	364.834
207.339	355.559
210.231	497.71
213.124	841.9
216.017	847.155
218.909	443.709
221.802	363.888
224.695	296.822
227.587	338.907
230.48	449.128
233.373	179.475
236.266	5.06616
239.158	52.5972
242.051	68.8307
244.944	52.2602
247.836	2.30432
250.729	81.9399
253.622	314.932
256.514	735.903
259.407	1220.24
262.3	1164.74
265.193	876.713
268.085	453.434
270.978	274.344
273.871	369.843
276.763	693.003
279.656	964.137
282.549	1261.49
285.441	1642.42
288.334	1755.45
291.227	1264.3
294.12	760.749
297.012	601.038
299.905	761.524
302.798	1151.2
305.69	1863.72
308.583	3464.35
311.476	5040.86
314.369	4231.32
317.261	2098.71
320.154	1290.21
323.047	1056.74
325.939	1131.11
328.832	1518.03
331.725	1943.23
334.617	2270.07
337.51	2665.44
340.403	2738.84
343.296	3172.66
346.188	3509.35
349.081	2280.21
351.974	1191.26
354.866	567.61
357.759	263.948
360.652	96.0294
363.544	16.8455
366.437	34.9172
369.33	60.2508
372.223	59.697
375.115	33.2842
378.008	6.39905
380.901	97.9556
383.793	194.795
386.686	347.372
389.579	548.088
392.471	1041.15
395.364	1694.42
398.257	1659.26
401.15	786.67
404.042	521.265
406.935	733.042
409.828	1032.46
412.72	1217.55
415.613	1452.47
418.506	1895.3
421.398	1656.93
424.291	1068.39
427.184	986.81
430.077	1471.09
432.969	2493.56
435.862	2172.23
438.755	1872.62
441.647	1464.38
444.54	977.395
447.433	663.211
450.326	569.469
453.218	700.538
456.111	962.574
459.004	319.784
461.896	60.0081
464.789	64.6769
467.682	20.8381
470.574	203.258
473.467	629.337
476.36	1242.91
479.253	1581.97
482.145	2216.1
485.038	3485.93
487.931	5350.49
490.823	7941.42
493.716	8891.18
496.609	5560.31
499.501	2743.78
502.394	1476.75
505.287	838.945
508.18	625.468
511.072	516.879
513.965	497.8
516.858	568.23
519.75	711.773
522.643	956.98
525.536	1483.88
528.429	1868.91
531.321	1558.33
534.214	983.277
537.107	636.44
539.999	298.112
542.892	90.5283
545.785	15.7637
548.677	50.4851
551.57	40.9545
554.463	12.9027
557.356	112.022
560.248	251.258
563.141	571.528
566.034	1001.82
568.926	1913.97
571.819	2518.64
574.712	2486.36
577.604	1531.86
580.497	798.076
583.39	538.962
586.282	541.735
589.175	783.816
592.068	1249.37
594.961	2166.9
597.853	2454.48
600.746	1025.87
603.639	311.748
606.531	82.7848
609.424	5.32074
612.317	96.3939
615.209	206.857
618.102	390.517
620.995	616.511
623.888	730.209
626.78	639.856
629.673	389.639
632.566	126.842
635.458	40.6814
638.351	20.4492
641.244	18.8066
644.137	34.6715
647.029	18.5488
649.922	43.033
652.815	173.87
655.707	289.089
658.6	359.136
661.493	362.738
664.385	488.64
667.278	775.846
670.171	1206.53
673.064	1917.78
675.956	2700.17
678.849	2839.06
681.742	1967.61
684.634	1248.29
687.527	856.702
690.42	664.509
693.312	566.904
696.205	333.318
699.098	176.921
701.991	82.0015
704.883	7.62506
707.776	16.9795
710.669	7.86481
713.561	27.1874
716.454	87.9269
719.347	106.459
722.24	199.928
725.132	222.374
728.025	190.612
730.918	88.7463
733.81	6.49597
736.703	14.4075
739.596	16.817
742.489	40.9445
745.381	42.7545
748.274	91.7585
751.167	122.917
754.059	125.754
756.952	190.358
759.845	250.348
762.737	299.513
765.63	356.747
768.523	463.21
771.416	569.219
774.308	622.734
777.201	673.037
780.094	603.909
782.986	510.886
785.879	397.083
788.772	259.527
791.664	178.144
794.557	123.377
797.45	65.8536
800.343	48.6264
803.235	28.6829
806.128	5.81165
809.021	10.388
811.913	13.9863
814.806	10.0641
817.699	28.4218
820.591	31.2476
823.484	19.5179
826.377	22.0232
829.269	78.7862
832.162	174.853
835.055	149.663
837.948	179.175
840.84	201.079
843.733	263.953
846.626	321.312
849.518	403.3
852.411	561.797
855.304	852.976
858.196	1252.53
861.089	1627.83
863.982	1966.9
866.875	2570.01
869.767	3593.22
872.66	3873.51
875.553	2616.7
878.445	1506.94
881.338	1046.76
884.231	868.184
887.123	728.549
890.016	627.307
892.909	564.484
895.802	542.76
898.694	565.42
901.587	641.842
904.48	734.572
907.372	871.491
910.265	1053.92
913.158	1281.78
916.05	1588.58
918.943	2214.58
921.836	3270.03
924.729	4813.45
927.621	5811.62
930.514	4320.26
933.407	2266.02
936.299	1173.55
939.192	648.045
942.085	423.363
944.978	313.305
947.87	187.596
950.763	14.9894
953.656	53.0697
956.548	40.9019
959.441	0.714355
962.334	33.6105
965.227	155.98
968.119	335.506
971.012	581.747
973.905	971.844
976.797	1529.78
979.69	2185.65
982.583	2651.84
985.475	2437.23
988.368	1697.76
991.261	999.798
994.154	550.827
997.046	283.88
999.939	128.555
1002.83	104.953
1005.72	34.5021
1008.62	31.5892
1011.51	3.39209
1014.4	19.042
1017.29	1.51392
1020.19	3.26227
1023.08	1.6012
1025.97	20.3841
1028.87	9.53247
1031.76	14.5051
1034.65	12.1253
1037.54	44.3948
1040.44	50.5002
1043.33	62.6076
1046.22	84.5062
1049.12	108.153
1052.01	116.04
1054.9	203.679
1057.79	306.421
1060.69	552.234
1063.58	819.185
1066.47	1277.21
1069.36	1984.98
1072.26	2508.18
1075.15	1864.9
1078.04	1248.63
1080.93	1095.58
1083.83	1294.21
1086.72	1703.01
1089.61	2365.67
1092.51	2876.68
1095.4	2291.09
1098.29	1392.91
1101.18	865.301
1104.08	599.812
1106.97	403.147
1109.86	293.699
1112.75	181.333
1115.65	111.193
1118.54	76.6581
1121.43	57.956
1124.33	40.1531
1127.22	13.7017
1130.11	13.3253
1133	2.77826
1135.9	15.0648
1138.79	3.87488
1141.68	30.0065
1144.57	1.55383
1147.47	35.1661
1150.36	6.49542
1153.25	16.2348
1156.14	2.97711
1159.04	20.0243
1161.93	19.0103
1164.82	35.58
1167.72	28.7072
1170.61	27.4761
1173.5	26.6105
1176.39	8.6438
1179.29	25.8749
1182.18	21.3747
1185.07	10.4479
1187.96	4.14343
1190.86	1.15088
