Measurement: Raman, 532 nm, unoriented, Raman Data Processed
Mineral: Zoisite
Rruff sample: R050038
Ideal chemistry: Ca_2_Al_3_(Si_2_O_7_)(SiO_4_)O(OH)
Locality: Elf Shooting Creek, Clay County, North Carolina, USA
Source: University of Arizona Mineral Museum
Description: Tan colored fragments of single crystals
Measured chemistry: (Ca_.998_Na_.002_)_2_(Al_.982_Fe^3+^_.018_)_3_(Si_.982_Fe^3+^_.018_)_3_O_12_(OH)
Raman shift (cm-1)	intensity
163.199	0
166.091	33.0059
168.984	175.051
171.877	371.976
174.769	545.384
177.662	864.663
180.555	1129.27
183.448	1459.81
186.34	1851.73
189.233	2149.89
192.126	1973.31
195.018	1313.52
197.911	786.889
200.804	501.685
203.696	240.821
206.589	65.0381
209.482	7.07422
212.375	23.5083
215.267	103.409
218.16	374.017
221.053	504.636
223.945	190.75
226.838	54.7251
229.731	35.1084
232.624	23.6177
235.516	87.2192
238.409	34.9951
241.302	11.9072
244.194	133.827
247.087	173.874
249.98	255.476
252.872	425.835
255.765	703.602
258.658	849.694
261.55	753.766
264.443	447.273
267.336	252.13
270.228	200.026
273.121	392.143
276.014	602.933
278.907	795.563
281.799	1042.65
284.692	1202.55
287.585	1110.1
290.477	887.302
293.37	858.321
296.263	1171.29
299.156	1699.46
302.048	2444.77
304.941	3630.99
307.834	4837.77
310.726	5449.47
313.619	4448.27
316.512	2585.12
319.404	1629.4
322.297	1275.43
325.19	1157.78
328.082	1348.17
330.975	1657.97
333.868	2097.48
336.761	2585.28
339.653	3043.44
342.546	3573.45
345.439	3658.21
348.331	2630.92
351.224	1398.19
354.117	749.297
357.01	357.473
359.902	167.891
362.795	35.1992
365.688	16.5415
368.58	41.4395
371.473	45.936
374.366	40.6226
377.258	107.767
380.151	27.7539
383.044	33.4399
385.936	119.32
388.829	226.388
391.722	462.423
394.615	696.05
397.507	781.564
400.4	719.548
403.293	879.378
406.185	1223.02
409.078	1617.11
411.971	1691.53
414.863	1790.39
417.756	1885.57
420.649	1796.98
423.541	1542.62
426.434	1505.09
429.327	1539.26
432.22	1812.39
435.112	1702.18
438.005	1520.75
440.898	1126.57
443.79	830.949
446.683	570.407
449.576	417.633
452.469	444.79
455.361	499.45
458.254	95.0459
461.147	103.948
464.039	17.4775
466.932	405.923
469.825	868.402
472.717	1509.51
475.61	2435.11
478.503	3450.13
481.396	4866.69
484.288	6806.2
487.181	8816.6
490.074	10226.5
492.966	8907.11
495.859	5268.79
498.752	2789.13
501.644	1493.63
504.537	877.415
507.43	590.574
510.322	530.587
513.215	610.079
516.108	716.65
519	1022.79
521.893	1356.9
524.786	1719.31
527.679	1842.53
530.571	1364.05
533.464	924.684
536.357	513.107
539.249	189.846
542.142	22.1436
545.035	48.416
547.928	35.2451
550.82	20.2344
553.713	81.2793
556.606	276.528
559.498	641.706
562.391	1090.52
565.284	1578.23
568.176	1944.8
571.069	2048.64
573.962	1668.38
576.855	996.339
579.747	665.215
582.64	640.929
585.533	981.073
588.425	1345.16
591.318	1827.59
594.211	2310.07
597.103	2216.35
599.996	1068.73
602.889	365.197
605.781	90.7275
608.674	2.02246
611.567	13.5176
614.46	153.809
617.352	313.983
620.245	397.624
623.138	507.36
626.03	448.274
628.923	223.656
631.816	54.3457
634.708	54.0928
637.601	20.749
640.494	17.8252
643.386	22.4355
646.279	174.836
649.172	200.964
652.065	221.085
654.957	354.47
657.85	313.734
660.743	309.132
663.635	557.962
666.528	881.924
669.421	1283.16
672.313	1786.95
675.206	2068.81
678.099	1969.72
680.992	1472.53
683.884	1029.91
686.777	767.896
689.67	662.868
692.562	590.504
695.455	461.435
698.348	306.877
701.24	233.018
704.133	83.3457
707.026	60.5898
709.919	124.359
712.811	153.876
715.704	208.685
718.597	213.41
721.489	252.122
724.382	266.935
727.275	187.37
730.167	92.1338
733.06	72.3506
735.953	31.3047
738.846	21.7324
741.738	0.671875
744.631	17.3779
747.524	5.58301
750.416	30.5664
753.309	93.4541
756.202	170.977
759.094	247.826
761.987	296.661
764.88	353.051
767.773	439.397
770.665	469.927
773.558	536.398
776.451	533.46
779.343	509.587
782.236	432.34
785.129	351.507
788.021	240.82
790.914	161.869
793.807	96.2246
796.699	25.0293
799.592	29.3701
802.485	20.3232
805.378	38.6992
808.27	40.0576
811.163	83.832
814.056	75.7148
816.948	21.6582
819.841	41.3447
822.734	4.52637
825.626	1.08301
828.519	51.2578
831.412	147.245
834.305	144.308
837.197	100.414
840.09	103.848
842.983	133.407
845.875	204.034
848.768	320.397
851.661	506.103
854.553	765.019
857.446	1171.65
860.339	1602.78
863.231	2210.78
866.124	2901.99
869.017	3531.04
871.91	3431.03
874.802	2738.6
877.695	1900.89
880.588	1426.85
883.48	1358.29
886.373	1455.08
889.266	1478.49
892.159	1331.11
895.051	1265.86
897.944	1228.5
900.837	1132.94
903.729	1150.44
906.622	1287.94
909.515	1523.83
912.407	1958.5
915.3	2802.69
918.193	3913.24
921.086	4984.89
923.978	5912.98
926.871	5740.63
929.764	4469.26
932.656	2646.3
935.549	1522.44
938.442	803.898
941.334	512.68
944.227	225.97
947.12	105.315
950.013	0.52832
952.905	20.2168
955.798	26.5273
958.691	19.3984
961.583	109.159
964.476	303.47
967.369	366.713
970.261	739.492
973.154	1157.73
976.047	1741.9
978.939	2208.88
981.832	2495.66
984.725	2154.47
987.618	1660.23
990.51	1059.14
993.403	661.402
996.296	460.164
999.188	301.14
1002.08	167.873
1004.97	107.128
1007.87	50.8135
1010.76	14.5781
1013.65	14.5742
1016.54	34.1397
1019.44	11.9414
1022.33	21.8486
1025.22	31.4648
1028.12	40.7158
1031.01	8.85059
1033.9	56.7315
1036.79	122.204
1039.69	98.085
1042.58	232.945
1045.47	233.496
1048.36	318.188
1051.26	263.687
1054.15	278.91
1057.04	422.647
1059.93	594.117
1062.83	795.271
1065.72	1175.48
1068.61	1372.62
1071.51	1427.25
1074.4	1280.93
1077.29	1002.99
1080.18	1087.35
1083.08	1119.06
1085.97	1340.92
1088.86	1758.72
1091.76	1739.6
1094.65	1429.94
1097.54	1059.38
1100.43	626.255
1103.33	467.361
1106.22	364.714
1109.11	267.328
1112	159.64
1114.9	124.612
1117.79	104.552
1120.68	105.947
1123.57	104.787
1126.47	53.169
1129.36	30.7969
1132.25	66.1523
1135.14	64.4932
1138.04	17.2695
1140.93	7.19824
1143.82	70.7529
1146.72	43.0322
1149.61	26.0664
1152.5	4.32812
1155.39	39.5059
1158.29	61.8789
1161.18	146.329
1164.07	3.94336
1166.96	8.05371
1169.86	100.106
1172.75	27.9854
1175.64	32.957
1178.54	85.3135
1181.43	62.3887
1184.32	107.842
1187.21	80.7451
1190.11	39.877
1193	66.1924
1195.89	71.043
1198.78	91.9482
1201.68	50.6963
1204.57	42.3418
1207.46	15.9815
1210.36	55.456
1213.25	23.1855
1216.14	3.82031
1219.03	66.6084
1221.93	26.8535
1224.82	92.9023
1227.71	22.0352
1230.6	8.8457
1233.5	94.8955
1236.39	4.11328
1239.28	79.9834
1242.17	45.8828
1245.07	38.919
1247.96	43.248
1250.85	2.79492
1253.75	108.689
1256.64	27.585
1259.53	67.7314
1262.42	161.314
1265.32	72.1992
1268.21	73.6914
1271.1	111.745
1273.99	57.5996
1276.89	73.1572
1279.78	83.6084
1282.67	93.9492
1285.57	68.0938
1288.46	94.3174
1291.35	170.853
1294.24	41.1924
1297.14	105.282
1300.03	39.9639
1302.92	190.749
1305.81	35.9668
1308.71	27.7158
1311.6	75.8525
1314.49	9.3916
1317.38	0.226563
