Measurement: Raman, 785 nm, unoriented, Raman Data Processed
Mineral: Zoisite
Rruff sample: R060567
Ideal chemistry: Ca_2_Al_3_(Si_2_O_7_)(SiO_4_)O(OH)
Locality: Umba Valley, Tanzania
Source: Michael Scott
Description: Purple prismatic crystals
Measured chemistry: Ca_2.00_Al_3.00_(Si_1.00_O_4_)(Si_2.00_O_7_)O(OH)
Raman shift (cm-1)	intensity
140.595	0
143.487	50.6837
146.38	240.705
149.273	663.631
152.166	691.673
155.058	377.49
157.951	138.418
160.844	48.9612
163.736	108.78
166.629	142.598
169.522	153.732
172.414	181.286
175.307	265.168
178.2	366.642
181.093	524.564
183.985	669.544
186.878	857.419
189.771	1150.01
192.663	1172.48
195.556	890.832
198.449	607.339
201.341	346.13
204.234	201.123
207.127	91.7634
210.019	23.8269
212.912	3.25195
215.805	49.7521
218.698	80.1705
221.59	159.89
224.483	150.761
227.376	152.161
230.268	211.897
233.161	149.717
236.054	17.7961
238.946	54.4694
241.839	14.279
244.732	63.0228
247.625	9.7688
250.517	9.83862
253.41	22.1881
256.303	152.006
259.195	299.594
262.088	347.035
264.981	161.015
267.873	30.0996
270.766	71.7584
273.659	197.988
276.552	401.556
279.444	571.018
282.337	821.871
285.23	1138.57
288.122	1253.36
291.015	1104.65
293.908	714.437
296.8	551.883
299.693	604.765
302.586	772.258
305.478	1040.69
308.371	1556.05
311.264	1954.06
314.157	1829.82
317.049	1078.38
319.942	677.968
322.835	608.601
325.727	725.059
328.62	972.268
331.513	1415.02
334.406	1943.65
337.298	2492.39
340.191	3043.47
343.084	3767.17
345.976	4482.72
348.869	3388.3
351.762	1685.13
354.654	780.24
357.547	395.05
360.44	203.251
363.333	34.6171
366.225	1.41174
369.118	51.0669
372.011	33.8353
374.903	8.93628
377.796	18.2627
380.689	79.1958
383.582	119.11
386.474	184.763
389.367	230.348
392.26	371.823
395.152	620.442
398.045	890.166
400.938	490.54
403.83	256.477
406.723	252.079
409.616	307.811
412.508	290.242
415.401	337.328
418.294	380.856
421.187	319.766
424.079	193.089
426.972	102.275
429.865	122.957
432.757	144.733
435.65	258.624
438.543	320.195
441.435	263.741
444.328	152.869
447.221	88.427
450.113	12.3806
453.006	36.4299
455.899	77.7808
458.792	4.83691
461.684	40.5283
464.577	41.1187
467.47	133.745
470.362	311.776
473.255	658.48
476.148	962.411
479.041	1223.13
481.933	1430.67
484.826	1890.15
487.719	2646.23
490.611	3744.54
493.504	4358.1
496.397	3167.15
499.289	1646.09
502.182	877.833
505.075	548.733
507.967	422.751
510.86	413.646
513.753	437.575
516.646	490.746
519.538	485.534
522.431	604.645
525.324	818.294
528.216	981.614
531.109	828.063
534.002	485.439
536.894	231.91
539.787	100.744
542.68	15.9968
545.573	31.9309
548.465	37.1112
551.358	18.1177
554.251	103.493
557.143	271.045
560.036	507.981
562.929	850.373
565.822	1274.29
568.714	1915.75
571.607	2549.52
574.5	2725.3
577.392	1902.92
580.285	1121.33
583.178	653.471
586.07	598.614
588.963	700.688
591.856	947.358
594.749	1287.44
597.641	1459.73
600.534	856.474
603.427	252.422
606.319	77.9199
609.212	25.4659
612.105	33.3994
614.997	168.026
617.89	352.779
620.783	550.392
623.676	791.698
626.568	779.573
629.461	579.082
632.354	262.717
635.246	131.62
638.139	40.0874
641.032	6.80188
643.924	58.5553
646.817	30.2317
649.71	11.8641
652.602	95.3742
655.495	148.641
658.388	182.83
661.281	231.801
664.173	458.481
667.066	776.602
669.959	1177.17
672.851	1817.81
675.744	2442.76
678.637	2558.65
681.529	1954.54
684.422	1252.88
687.315	775.843
690.208	588.148
693.1	439.795
695.993	265.923
698.886	171.165
701.778	89.2214
704.671	44.7264
707.564	22.5402
710.457	14.5272
713.349	4.28931
716.242	1.15552
719.135	17.4117
722.027	26.4899
724.92	26.3992
727.813	13.7168
730.705	29.1851
733.598	26.4351
736.491	45.5055
739.384	37.0594
742.276	17.635
745.169	61.6696
748.062	89.3424
750.954	125.74
753.847	176.606
756.74	186.262
759.632	253.04
762.525	318.558
765.418	412.492
768.31	504.385
771.203	644.493
774.096	713.122
776.989	799.392
779.881	697.368
782.774	575.457
785.667	461.841
788.559	336.017
791.452	233.512
794.345	139.32
797.237	111.363
800.13	103.123
803.023	37.5101
805.915	32.2733
808.808	14.0764
811.701	3.45337
814.594	3.24622
817.486	1.83203
820.379	27.5131
823.272	13.4746
826.164	12.2368
829.057	9.08948
831.95	42.4791
834.842	16.0529
837.735	36.3946
840.628	57.4943
843.521	152.282
846.413	165.154
849.306	199.169
852.199	217.371
855.091	358.809
857.984	554.077
860.877	878.847
863.769	1341.98
866.662	1889.8
869.555	2502.14
872.448	2715.77
875.34	2021.05
878.233	1137.52
881.126	691.976
884.018	543.664
886.911	465.708
889.804	517.012
892.697	369.88
895.589	310.088
898.482	252.852
901.375	285.644
904.267	384.782
907.16	554.392
910.053	738.66
912.945	1129.26
915.838	1778.53
918.731	2850.92
921.624	4287.56
924.516	6032.03
927.409	7102.52
930.302	5765.79
933.194	3282.62
936.087	1729.86
938.98	946.607
941.872	505.332
944.765	295.938
947.658	99.3767
950.551	43.2478
953.443	3.92725
956.336	31.4609
959.229	17.6196
962.121	30.9473
965.014	124.302
967.907	237.554
970.799	414.423
973.692	669.396
976.585	957.13
979.477	1313.32
982.37	1550.15
985.263	1407.82
988.156	1028.56
991.048	630.177
993.941	369.205
996.834	207.754
999.726	119.534
1002.62	46.2473
1005.51	24.2242
1008.4	3.39319
1011.3	45.9901
1014.19	32.0769
1017.08	10.0258
1019.98	27.0535
1022.87	19.1257
1025.76	31.605
1028.65	2.07544
1031.55	7.69006
1034.44	37.73
1037.33	14.5787
1040.22	24.7607
1043.12	73.3818
1046.01	67.1688
1048.9	75.88
1051.8	81.4457
1054.69	121.523
1057.58	77.8997
1060.47	177.371
1063.37	217.261
1066.26	237.431
1069.15	309.435
1072.04	366.827
1074.94	314.588
1077.83	253.277
1080.72	278.983
1083.62	387.985
1086.51	559.112
1089.4	725.837
1092.29	874.231
1095.18	667.193
1098.08	334.195
1100.97	151.175
1103.86	57.0869
1106.76	14.9106
1109.65	78.6333
1112.54	87.2983
1115.43	10.084
1118.33	20.7258
1121.22	21.8516
1124.11	3.53662
