Measurement: Raman, 532 nm, unoriented, Raman Data Processed
Mineral: Zoisite
Rruff sample: R050041
Ideal chemistry: Ca_2_Al_3_(Si_2_O_7_)(SiO_4_)O(OH)
Locality: Franklin County, Conway, Massachussetts, USA
Source: University of Arizona Mineral Museum
Description: Tan colored fragment
Measured chemistry: (Ca_.993_Mg_.004_Na_.002_Mn_.001_)_2_(Al_.980_Fe^3+^_.020_)_3_(Si_.986_Fe^3+^_.014_)_3_O_12_(OH)
Raman shift (cm-1)	intensity
152.592	0
155.967	61.1328
159.342	1.55664
162.717	99.1719
166.091	291.203
169.466	719.311
172.841	978.576
176.216	1123.2
179.591	1448.06
182.965	1841.44
186.34	2273.72
189.715	2692.69
193.09	2233.75
196.465	1497.27
199.84	1080.6
203.214	833.039
206.589	459.795
209.964	382.184
213.339	409.324
216.714	310.33
220.089	339.062
223.463	438.033
226.838	280.662
230.213	170.756
233.588	60.6504
236.963	44.582
240.337	49.3711
243.712	54.4688
247.087	24.4434
250.462	69.6016
253.837	285.379
257.211	601.244
260.586	612.074
263.961	200.897
267.336	60.6621
270.711	135.086
274.086	163.516
277.46	574.111
280.835	972.689
284.21	1173.97
287.585	1083.38
290.959	680.488
294.334	621.455
297.709	1015.55
301.084	1651
304.459	2638.04
307.834	4167.68
311.208	4999.78
314.583	3322.65
317.958	1712.2
321.333	1074.76
324.708	806.514
328.082	1033.12
331.457	1345.33
334.832	1944.8
338.207	2630.44
341.582	3521.09
344.957	3938.58
348.331	2910.24
351.706	1436.23
355.081	756.658
358.456	281.141
361.831	60.0371
365.205	53.6895
368.58	58.6562
371.955	72.2031
375.33	9.375
378.705	68.9453
382.079	185.391
385.454	159.078
388.829	366.992
392.204	624.215
395.579	1206.14
398.954	887.824
402.328	695.668
405.703	1105.98
409.078	1296.21
412.453	1780.54
415.828	1720.08
419.202	1750.21
422.577	1575.88
425.952	1303.03
429.327	1357.42
432.702	1575.79
436.077	1788.11
439.451	1337.66
442.826	805.762
446.201	559.91
449.576	456.273
452.951	349.18
456.325	486.328
459.7	17.0078
463.075	7.71094
466.45	121.18
469.825	637.707
473.2	1461.77
476.574	2153.7
479.949	3102.96
483.324	4797.63
486.699	7035.36
490.074	9141.13
493.448	7923.35
496.823	4182.55
500.198	1918.32
503.573	1092.96
506.948	782.031
510.322	551.965
513.697	636.398
517.072	754.027
520.447	910.125
523.822	1319.03
527.197	1599.98
530.571	1223.23
533.946	622.039
537.321	436.984
540.696	124.09
544.071	92.6445
547.445	102.633
550.82	22.293
554.195	157.332
557.57	249.918
560.945	655.047
564.319	920.375
567.694	1435.07
571.069	1768.82
574.444	1345.4
577.819	746.519
581.193	514.207
584.568	649.848
587.943	947.973
591.318	1468.96
594.693	2102.32
598.068	1669.64
601.442	685.387
604.817	139.344
608.192	68.9648
611.567	20.5547
614.942	204.91
618.317	35.8633
621.691	353.266
625.066	265.769
628.441	253.289
631.816	58.6016
635.191	186.293
638.565	42.4648
641.94	224.871
645.315	101.676
648.69	405.379
652.065	419.699
655.439	343.172
658.814	348.137
662.189	553.875
665.564	646.254
668.939	910.293
672.313	1311.96
675.688	1734.58
679.063	1609.68
682.438	1078.91
685.813	748.996
689.188	717.199
692.562	533.918
695.937	486.172
699.312	288.699
702.687	63.4727
706.062	206.367
709.437	345.789
712.811	127.055
716.186	62.9414
719.561	253.555
722.936	295.086
726.311	204.109
729.685	249.621
733.06	222.336
736.435	135.324
739.81	208.629
743.185	208.144
746.559	43.3438
749.934	47.4727
753.309	255.144
756.684	100.223
760.059	107.906
763.433	261.519
766.808	319.41
770.183	429.199
773.558	459.894
776.933	439.957
780.308	387.707
783.682	513.551
787.057	384.273
790.432	323.891
793.807	266.211
797.182	223.68
800.556	120.492
803.931	38.0273
807.306	90.7773
810.681	50.2227
814.056	26.9336
817.431	37.2617
820.805	41.8594
824.18	39.1289
827.555	7.86328
830.93	18.0977
834.305	114.941
837.679	104.715
841.054	57.4375
844.429	389.066
847.804	325.758
851.179	394.352
854.553	819.426
857.928	1179.66
861.303	1442.88
864.678	2067.9
868.053	2830.88
871.428	3306.09
874.802	2684.18
878.177	1731.61
881.552	1313.91
884.927	1225.38
888.302	1517.5
891.676	1540.36
895.051	1404.02
898.426	1473.35
901.801	1347
905.176	1173.77
908.551	1524.69
911.925	1628.09
915.3	2318.16
918.675	3128.36
922.05	4160.41
925.425	5160.3
928.799	4331.43
932.174	2437.35
935.549	1221.66
938.924	455.578
942.299	441.793
945.673	176.238
949.048	178.773
952.423	49.6836
955.798	98.3242
959.173	81.6953
962.548	15.6992
965.922	274.832
969.297	596.926
972.672	906.516
976.047	1426.9
979.422	1996.44
982.796	2167.11
986.171	1789.53
989.546	1234.86
992.921	748.941
996.296	562.191
999.67	387.641
1003.04	227.148
1006.42	212.656
1009.79	251.856
1013.17	58.6914
1016.54	76.6094
1019.92	13.2031
1023.29	44.8477
1026.67	68.125
1030.04	196.035
1033.42	19.4844
1036.79	204.977
1040.17	293.098
1043.54	180.633
1046.92	171.871
1050.29	332.551
1053.67	203.695
1057.04	369.293
1060.42	462.312
1063.79	723.481
1067.17	933.637
1070.54	1408.77
1073.92	1111.17
1077.29	957.746
1080.67	1025.24
1084.04	904.203
1087.42	1334.54
1090.79	1543.38
1094.16	1470.41
1097.54	892.16
1100.91	682.106
1104.29	339.742
1107.66	451.734
1111.04	168.254
1114.41	145.457
1117.79	178.781
1121.16	159.394
1124.54	27.5742
1127.91	240.023
1131.29	132.426
1134.66	166.945
1138.04	75.5703
1141.41	107.691
1144.79	54.875
1148.16	216.078
1151.54	230.961
1154.91	206.93
1158.29	94.9961
1161.66	135.859
1165.04	205.977
1168.41	30.8789
1171.79	103.106
1175.16	50.6953
1178.54	115.711
1181.91	63.9023
1185.29	24.0547
1188.66	254.519
1192.04	364.273
1195.41	126.594
1198.78	110.793
1202.16	153.227
1205.53	129.5
1208.91	109.551
1212.28	225.848
1215.66	54.1328
1219.03	200.836
1222.41	22.0273
1225.78	115.352
1229.16	177.809
1232.53	128.633
1235.91	107.66
1239.28	369.695
1242.66	186.356
1246.03	65.8398
1249.41	259.852
1252.78	11.8477
1256.16	5.60156
1259.53	119.039
1262.91	334.102
1266.28	289.312
1269.66	308.547
1273.03	399.727
1276.4	142.25
1279.78	202.195
1283.15	222.32
1286.53	84.8516
1289.9	340.93
1293.28	190.594
1296.65	126.078
1300.03	300.055
1303.4	139.156
1306.78	97.3672
1310.15	278.117
1313.53	112.727
1316.9	0.140625
