Measurement: Raman, 532 nm, unoriented, Raman Data Processed
Mineral: Zunyite
Rruff sample: R050263
Ideal chemistry: Al_13_Si_5_O_20_(OH,F)_18_Cl
Locality: Ruby Mountain, Tintic District, Utah, USA
Source: Marcus Origlieri
Description: Colorless tetrahedral crystals
Measured chemistry: Al_13.00_Si_5.00_O_20_((OH)_14.80_F_3.20_)_Σ=18_Cl_1.00_ ; gray phase. (Al_12.92_Fe^3+^_0.08_)_Σ=13_Si_5.00_O_20_((OH)_14.86_F_3.14_)_Σ=18_Cl_1.00_ rim, lighter phase
Raman shift (cm-1)	intensity
138.342	0
141.235	0.134399
144.128	9.28613
147.02	6.34778
149.913	10.4524
152.806	33.0198
155.699	34.9855
158.591	40.4088
161.484	48.5476
164.377	67.0875
167.269	97.5151
170.162	61.9364
173.055	0.869873
175.947	10.3472
178.84	4.90076
181.733	6.64258
184.626	34.5699
187.518	53.4476
190.411	76.4933
193.304	112.814
196.196	165.504
199.089	239.091
201.982	308.154
204.875	209.079
207.767	123.234
210.66	101.928
213.553	110.384
216.445	102.222
219.338	77.3671
222.231	62.7213
225.123	59.8878
228.016	57.4821
230.909	72.7869
233.802	75.224
236.694	73.6981
239.587	73.1484
242.48	76.0499
245.372	69.028
248.265	65.7482
251.158	56.9177
254.05	52.266
256.943	49.04
259.836	44.5576
262.728	39.4674
265.621	49.3966
268.514	75.583
271.407	83.9106
274.299	61.4105
277.192	34.6887
280.085	14.4759
282.977	0.357666
285.87	14.6242
288.763	13.6553
291.656	4.67981
294.548	5.10608
297.441	5.73389
300.334	26.0287
303.226	42.0463
306.119	57.5216
309.012	75.7224
311.904	93.2225
314.797	105.301
317.69	106.302
320.582	98.4901
323.475	84.937
326.368	81.6209
329.261	84.6792
332.153	75.2741
335.046	58.3098
337.939	36.9412
340.831	18.46
343.724	12.1046
346.617	13.5092
349.509	40.5784
352.402	84.2937
355.295	156.125
358.188	215.147
361.08	225.184
363.973	188.124
366.866	172.347
369.758	171.454
372.651	179.268
375.544	196.073
378.436	213.194
381.329	226.697
384.222	233.398
387.115	230.221
390.007	214.26
392.9	181.008
395.793	151.363
398.685	110.84
401.578	72.0469
404.471	45.2445
407.363	21.6834
410.256	16.8013
413.149	8.41272
416.041	25.5865
418.934	43.7433
421.827	65.3407
424.72	93.5295
427.612	125.338
430.505	167.332
433.398	206.09
436.29	253.483
439.183	282.934
442.076	305.21
444.969	324.63
447.861	322.266
450.754	322.307
453.647	289.485
456.539	255.243
459.432	229.51
462.325	217.141
465.217	190.445
468.11	144.133
471.003	92.57
473.896	56.3417
476.788	41.9016
479.681	29.3904
482.574	16.7783
485.466	10.5319
488.359	0.060791
491.252	8.34876
494.144	15.517
497.037	5.15173
499.93	3.74292
502.822	0.582031
505.715	1.21326
508.608	0.486328
511.501	3.98706
514.393	2.88892
517.286	5.12817
520.179	2.00378
523.071	5.28833
525.964	6.97412
528.857	9.16187
531.75	10.2483
534.642	15.0963
537.535	18.2648
540.428	21.3838
543.32	14.7118
546.213	29.4103
549.106	28.6165
551.998	34.6456
554.891	34.2416
557.784	39.2108
560.677	47.5631
563.569	54.7664
566.462	59.3042
569.355	69.6123
572.247	89.5656
575.14	107.334
578.033	127.033
580.925	142.627
583.818	179.909
586.711	206.263
589.604	239.436
592.496	275.158
595.389	310.756
598.282	348.298
601.174	384.516
604.067	408.934
606.96	428.066
609.852	434.4
612.745	418.739
615.638	394.408
618.53	350.582
621.423	304.299
624.316	260.251
627.209	216.7
630.101	171.607
632.994	138.865
635.887	106.786
638.779	77.0769
641.672	58.6962
644.565	41.6583
647.457	20.9922
650.35	15.85
653.243	4.25037
656.136	3.93897
659.028	0.209106
661.921	6.76208
664.814	6.35754
667.706	0.42334
670.599	3.03748
673.492	2.57922
676.385	0.824951
679.277	11.6628
682.17	12.6378
685.063	25.7903
687.955	24.5994
690.848	29.6171
693.741	38.8387
696.633	37.7179
699.526	41.9402
702.419	45.911
705.312	37.4712
708.204	31.5579
711.097	17.8158
713.99	17.1256
716.882	7.30066
719.775	9.43872
722.668	1.40747
725.56	1.12927
728.453	5.22351
731.346	2.24805
734.239	3.13586
737.131	2.5199
740.024	5.05261
742.917	0.835327
745.809	1.17786
748.702	6.26477
751.595	0.256348
754.487	3.39392
757.38	5.25171
760.273	9.40979
763.165	12.0749
766.058	17.2286
768.951	25.2886
771.844	23.3805
774.736	27.3336
777.629	24.4905
780.522	20.0637
783.414	25.6284
786.307	30.9152
789.2	29.3108
792.092	28.5579
794.985	24.4917
797.878	17.8136
800.77	12.9305
803.663	18.2494
806.556	16.9652
809.449	14.6165
812.341	13.4136
815.234	7.11072
818.127	15.5127
821.019	11.9475
823.912	17.5817
826.805	13.6271
829.697	8.85986
832.59	10.3904
835.483	13.2866
838.376	15.5035
841.268	7.02185
844.161	10.7213
847.054	4.69897
849.946	11.7098
852.839	18.4187
855.732	4.51416
858.625	2.59985
861.517	3.30139
864.41	0.829834
867.303	0.156128
870.195	3.84021
873.088	1.07434
875.981	0.566895
878.873	0.191528
881.766	4.86047
884.659	0.282715
887.552	4.73718
890.444	3.94702
893.337	5.40747
896.23	5.60669
899.122	14.7985
902.015	19.0902
904.908	18.7831
907.8	38.1166
910.693	41.7091
913.586	56.1407
916.479	79.0513
919.371	99.1352
922.264	117.964
925.157	148.222
928.049	170.343
930.942	183.275
933.835	178.549
936.727	183.806
939.62	193.843
942.513	207.362
945.405	214.961
948.298	200.391
951.191	174.005
954.084	137.113
956.976	99.9227
959.869	67.8991
962.762	44.608
965.654	22.0116
968.547	19.2745
971.44	17.0308
974.332	20.2554
977.225	26.5259
980.118	51.7878
983.011	69.1453
985.903	87.9728
988.796	106.818
991.689	117.666
994.581	106.315
997.474	76.2993
1000.37	52.4367
1003.26	33.0604
1006.15	24.5739
1009.04	23.3899
1011.94	20.9907
1014.83	19.1953
1017.72	16.0283
1020.62	5.43579
1023.51	4.37158
1026.4	0.740723
1029.29	4.39551
1032.19	3.22266
1035.08	6.04004
1037.97	5.68555
1040.87	4.83716
1043.76	0.241943
1046.65	0.908936
1049.54	3.19824
1052.43	4.3772
1055.33	8.32642
1058.22	2.62353
1061.11	7.14258
1064.01	3.3313
1066.9	2.63769
1069.79	3.15283
1072.68	1.1648
1075.58	1.62231
1078.47	7.73193
1081.36	5.58716
1084.26	17.2727
1087.15	27.9055
1090.04	20.3931
1092.93	11.2683
1095.83	17.8982
1098.72	17.1309
1101.61	15.8706
1104.5	12.8984
1107.4	7.84473
1110.29	1.03296
1113.18	7.80444
1116.08	11.4233
1118.97	9.82788
1121.86	18.0098
1124.75	24.1421
1127.65	29.0254
1130.54	34.9778
1133.43	32.3513
1136.32	33.0469
1139.22	28.7048
1142.11	18.7044
1145	20.0435
1147.89	12.0759
1150.79	6.82544
1153.68	6.70166
1156.57	6.12793
1159.46	3.39233
1162.36	5.17554
1165.25	16.9709
1168.14	18.7627
1171.04	22.8245
1173.93	26.7436
1176.82	22.6958
1179.71	17.3936
1182.61	19.0461
1185.5	11.6724
1188.39	15.6838
1191.29	23.5012
1194.18	24.2444
1197.07	15.9033
1199.96	6.74854
1202.86	13.2192
1205.75	1.24145
1208.64	8.48291
1211.53	1.2019
1214.43	3.84692
1217.32	6.48242
1220.21	0.463379
1223.11	0.034912
1226	1.26001
1228.89	5.55444
1231.78	3.25366
1234.67	9.04346
1237.57	6.37061
1240.46	3.26147
1243.35	4.47339
1246.25	11.5388
1249.14	10.6243
1252.03	10.116
1254.92	6.04614
1257.82	5.71021
1260.71	6.94238
1263.6	3.49951
1266.49	11.6396
1269.39	1.1167
1272.28	7.6394
1275.17	15.1348
1278.07	4.95288
1280.96	7.75513
1283.85	0.377686
1286.74	4.74561
1289.64	3.55957
1292.53	0
