Measurement: Raman, 532 nm, unoriented, Raman Data Processed
Mineral: Zunyite
Rruff sample: R050553
Ideal chemistry: Al_13_Si_5_O_20_(OH,F)_18_Cl
Locality: near Quartzsite, Yuma/La Paz Counties, Arizona, USA
Source: Dave Bunk Minerals
Description: Light gray crystals showing combined octahedral and tetrahedral forms
Measured chemistry: (Al_12.99_Fe^3+^_0.01_)_Σ=13_Si_5.00_O_20_((OH)_14.89_F_3.11_)_Σ=18_Cl_1.00_
Raman shift (cm-1)	intensity
146.077	0
149.451	7.73065
152.826	19.3327
156.201	27.9599
159.576	34.4062
162.951	55.5383
166.326	96.8905
169.7	40.0137
173.075	1.49526
176.45	1.006
179.825	0.907333
183.2	9.2894
186.575	20.345
189.949	33.9728
193.324	55.3231
196.699	104.291
200.074	227.252
203.449	196.314
206.823	95.4327
210.198	73.1392
213.573	77.1596
216.948	59.264
220.323	40.8346
223.697	35.8977
227.072	37.009
230.447	44.2871
233.822	47.8187
237.197	47.0314
240.572	40.9103
243.946	39.161
247.321	34.9628
250.696	31.9872
254.071	30.1482
257.446	24.4828
260.82	21.055
264.195	26.185
267.57	49.129
270.945	60.8431
274.32	37.3087
277.695	13.4072
281.07	1.19571
284.444	5.8661
287.819	6.15341
291.194	4.41733
294.569	1.53984
297.944	4.69878
301.318	15.6948
304.693	32.4251
308.068	52.7404
311.443	70.355
314.818	80.07
318.192	76.5992
321.567	67.4646
324.942	60.3383
328.317	62.459
331.692	59.9016
335.067	47.7561
338.441	31.8317
341.816	17.0017
345.191	12.4104
348.566	17.4557
351.941	51.3744
355.315	113.179
358.69	161.879
362.065	139.711
365.44	102.911
368.815	104.695
372.19	106.541
375.565	116.966
378.939	130.566
382.314	139.054
385.689	138.308
389.064	135.362
392.439	120.505
395.813	92.8927
399.188	67.058
402.563	38.7735
405.938	18.9557
409.313	6.10306
412.688	5.19708
416.062	10.4676
419.437	20.4175
422.812	33.6966
426.187	52.2921
429.562	73.7816
432.936	96.4148
436.311	114.818
439.686	130.799
443.061	142.286
446.436	142.828
449.81	137.238
453.185	118.111
456.56	100.784
459.935	95.3653
463.31	98.971
466.685	76.1762
470.059	44.8256
473.434	24.2679
476.809	12.451
480.184	7.23343
483.559	4.0139
486.934	0.493347
490.308	3.02052
493.683	3.73225
497.058	3.16567
500.433	4.79401
503.808	1.57309
507.183	0.039673
510.557	0.675873
513.932	1.92379
517.307	2.30102
520.682	2.67324
524.057	2.49645
527.431	3.95247
530.806	3.758
534.181	5.22214
537.556	7.19968
540.931	9.58975
544.306	11.9793
547.68	13.6731
551.055	15.651
554.43	16.8699
557.805	19.0506
561.18	21.7914
564.554	26.1953
567.929	31.9646
571.304	40.7594
574.679	48.65
578.054	63.6283
581.428	66.362
584.803	79.8548
588.178	93.7777
591.553	108.073
594.928	125.128
598.303	142.38
601.678	160.592
605.052	173.419
608.427	181.397
611.802	179.204
615.177	169.477
618.552	154.606
621.926	137.035
625.301	116.24
628.676	88.1675
632.051	67.4065
635.426	52.887
638.801	46.8928
642.175	27.4615
645.55	20.6867
648.925	16.3463
652.3	9.38187
655.675	6.09264
659.049	2.20844
662.424	0.558517
665.799	0.222366
669.174	1.47697
672.549	2.32002
675.923	0.225914
679.298	2.69996
682.673	8.06716
686.048	11.2087
689.423	18.0595
692.798	24.6559
696.173	31.0731
699.547	31.0771
702.922	27.7136
706.297	23.0759
709.672	15.8674
713.047	11.3814
716.421	6.68111
719.796	3.67253
723.171	1.67438
726.546	1.42944
729.921	1.57995
733.295	0.341911
736.67	1.26323
740.045	1.64889
743.42	0.227921
746.795	1.21811
750.17	1.57166
753.544	1.00121
756.919	3.01855
760.294	5.45348
763.669	6.82767
767.044	10.4503
770.418	12.3962
773.793	15.0126
777.168	17.2914
780.543	15.6836
783.918	18.8392
787.293	19.4674
790.668	17.1119
794.042	16.0676
797.417	13.7149
800.792	13.1497
804.167	13.189
807.542	13.9674
810.916	13.8957
814.291	12.1659
817.666	11.8765
821.041	11.0416
824.416	11.1149
827.79	9.57574
831.165	10.1527
834.54	7.7586
837.915	6.58407
841.29	4.20019
844.665	3.60998
848.039	2.78873
851.414	1.44123
854.789	0.204269
858.164	0.635864
861.539	0.623856
864.913	1.60252
868.288	1.32042
871.663	0.654648
875.038	0.179649
878.413	0.01046
881.788	0.018501
885.163	0.290588
888.537	2.17512
891.912	3.78291
895.287	5.32459
898.662	7.03581
902.037	10.3027
905.411	15.8343
908.786	21.8403
912.161	31.4239
915.536	44.2169
918.911	60.7649
922.285	81.2896
925.66	100.941
929.035	116.488
932.41	119.678
935.785	118.436
939.16	130.802
942.534	149.543
945.909	164.17
949.284	154.373
952.659	123.985
956.034	86.1825
959.409	56.5446
962.783	34.0757
966.158	21.0507
969.533	14.0743
972.908	11.0502
976.283	12.7833
979.658	19.7956
983.032	30.5953
986.407	46.4819
989.782	64.0987
993.157	74.716
996.532	63.0996
999.906	40.7353
1003.28	23.5971
1006.66	16.4007
1010.03	16.9432
1013.41	14.6505
1016.78	12.231
1020.15	9.11952
1023.53	9.71892
1026.9	8.52995
1030.28	1.98072
1033.65	1.59555
1037.03	2.54196
1040.4	2.4342
1043.78	1.65724
1047.15	0.256466
1050.53	1.18638
1053.9	3.52471
1057.28	4.49273
1060.65	5.53416
1064.03	6.01995
1067.4	4.31128
1070.78	3.24586
1074.15	1.98162
1077.53	1.66439
1080.9	3.14642
1084.28	4.60648
1087.65	5.21302
1091.03	8.75322
1094.4	9.85226
1097.78	10.5903
1101.15	9.44198
1104.53	8.2724
1107.9	6.86384
1111.28	5.73655
1114.65	7.41194
1118.03	11.2278
1121.4	16.3965
1124.78	19.358
1128.15	21.1484
1131.52	23.9925
1134.9	22.4742
1138.27	19.9741
1141.65	16.681
1145.02	12.9577
1148.4	11.718
1151.77	8.91253
1155.15	6.73102
1158.52	7.24951
1161.9	6.14183
1165.27	7.92654
1168.65	10.6106
1172.02	13.2485
1175.4	12.6904
1178.77	8.75428
1182.15	7.99209
1185.52	8.05415
1188.9	9.51269
1192.27	9.07187
1195.65	5.11149
1199.02	3.68302
1202.4	0.929375
1205.77	0.507088
1209.14	0.198143
1212.52	0.719437
1215.89	0.216526
1219.27	0.414417
1222.64	0.559757
1226.02	0.790756
1229.39	0.387699
1232.77	1.07709
1236.14	0.365864
1239.52	0.658779
1242.89	0.582439
1246.27	1.19349
1249.64	0.884521
1253.02	2.13246
1256.39	2.88458
1259.77	1.62592
1263.14	1.1647
1266.52	0.886761
1269.89	1.59668
1273.27	1.20623
1276.64	1.86975
1280.02	1.20925
1283.39	1.13979
1286.77	1.40524
1290.14	1.2592
1293.52	1.33436
1296.89	1.13139
1300.27	0.260567
