Measurement: Raman, 780 nm, unoriented, Raman Data Processed
Mineral: Zunyite
Rruff sample: R050263
Ideal chemistry: Al_13_Si_5_O_20_(OH,F)_18_Cl
Locality: Ruby Mountain, Tintic District, Utah, USA
Source: Marcus Origlieri
Description: Colorless tetrahedral crystals
Measured chemistry: Al_13.00_Si_5.00_O_20_((OH)_14.80_F_3.20_)_Σ=18_Cl_1.00_ ; gray phase. (Al_12.92_Fe^3+^_0.08_)_Σ=13_Si_5.00_O_20_((OH)_14.86_F_3.14_)_Σ=18_Cl_1.00_ rim, lighter phase
Raman shift (cm-1)	intensity
133.171	0
136.063	3.27905
138.956	5.71118
141.849	14.4484
144.741	17.0986
147.634	5.3811
150.527	4.89874
153.419	10.0087
156.312	14.805
159.205	10.4447
162.098	12.7086
164.99	20.5455
167.883	27.7977
170.776	7.84271
173.668	0.145447
176.561	1.29083
179.454	7.62659
182.346	19.9528
185.239	32.433
188.132	37.5136
191.025	55.2109
193.917	77.7498
196.81	94.4036
199.703	111.56
202.595	110.023
205.488	94.019
208.381	82.9749
211.274	81.4694
214.166	81.5098
217.059	79.2507
219.952	74.8598
222.844	73.2247
225.737	72.6483
228.63	75.9788
231.522	79.4407
234.415	76.1818
237.308	71.9472
240.201	68.2134
243.093	67.2833
245.986	59.3364
248.879	58.5884
251.771	53.057
254.664	50.7059
257.557	40.0441
260.449	36.9595
263.342	35.9662
266.235	30.2531
269.127	30.1301
272.02	29.2164
274.913	19.6025
277.806	11.6205
280.698	4.79437
283.591	1.26459
286.484	3.62427
289.376	4.01758
292.269	1.38043
295.162	2.67658
298.055	1.61407
300.947	4.72046
303.84	10.7627
306.733	14.7931
309.625	20.0932
312.518	20.6534
315.411	20.379
318.303	19.775
321.196	17.4631
324.089	5.47846
326.981	5.52313
329.874	5.13129
332.767	3.98395
335.66	2.72144
338.552	3.18024
341.445	0.789124
344.338	1.99774
347.23	6.44983
350.123	25.9754
353.016	42.043
355.909	63.7076
358.801	85.8425
361.694	92.055
364.587	83.4116
367.479	84.6385
370.372	88.6047
373.265	93.6034
376.157	98.858
379.05	105.772
381.943	113.749
384.836	111.273
387.728	111.75
390.621	106.05
393.514	94.2617
396.406	86.3888
399.299	75.315
402.192	66.5489
405.084	61.0167
407.977	64.6821
410.87	73.591
413.762	77.2725
416.655	95.2605
419.548	114.766
422.441	143.767
425.333	168.432
428.226	192.766
431.119	224.183
434.011	251.371
436.904	276.496
439.797	299.289
442.69	312.021
445.582	324.063
448.475	318.193
451.368	296.517
454.26	265.566
457.153	229.137
460.046	192.119
462.938	158.985
465.831	123.264
468.724	98.7981
471.616	71.6453
474.509	51.4285
477.402	35.6337
480.295	25.7091
483.187	15.5379
486.08	9.09406
488.973	3.78748
491.865	0.960327
494.758	6.53125
497.651	5.02234
500.543	5.18121
503.436	6.55798
506.329	2.5061
509.222	3.28088
512.114	2.53204
515.007	3.26947
517.9	4.91608
520.792	3.73157
523.685	5.36939
526.578	1.89441
529.471	8.87164
532.363	5.99005
535.256	7.37738
538.149	10.313
541.041	13.0114
543.934	15.9117
546.827	19.4751
549.719	22.7898
552.612	31.3434
555.505	25.1169
558.398	31.2604
561.29	38.6402
564.183	33.467
567.076	41.9869
569.968	47.2083
572.861	57.5425
575.754	65.2756
578.646	76.3824
581.539	94.7577
584.432	103.279
587.324	126.013
590.217	139.046
593.11	156.588
596.003	175.544
598.895	190.218
601.788	209.893
604.681	222.144
607.573	224.409
610.466	224.668
613.359	209.655
616.251	195.044
619.144	168.467
622.037	143.112
624.93	119.381
627.822	92.0148
630.715	73.1269
633.608	51.5209
636.5	38.8528
639.393	30.8608
642.286	19.8434
645.178	7.23938
648.071	2.71277
650.964	4.08203
653.857	1.35864
656.749	1.68738
659.642	1.80145
662.535	4.32672
665.427	0.579163
668.32	6.7904
671.213	6.57025
674.106	9.4566
676.998	9.03894
679.891	16.9725
682.784	19.4227
685.676	22.9084
688.569	19.0158
691.462	22.0098
694.354	22.2562
697.247	17.3449
700.14	17.9733
703.032	16.7017
705.925	12.9304
708.818	15.3237
711.711	14.3235
714.603	8.26556
717.496	3.97504
720.389	6.18323
723.281	4.03467
726.174	2.48029
729.067	4.05548
731.959	1.37463
734.852	0.076172
737.745	0.533936
740.638	0.421082
743.53	0.17218
746.423	3.46704
749.316	1.13708
752.208	1.20606
755.101	0.700928
757.994	0.82135
760.886	1.99872
763.779	2.48096
766.672	0.301147
769.564	6.31378
772.457	6.38788
775.35	8.39117
778.243	10.1561
781.135	8.86664
784.028	8.18793
786.921	10.3939
789.813	10.8007
792.706	13.9833
795.599	9.77167
798.491	11.6912
801.384	13.1024
804.277	9.27789
807.17	13.6538
810.062	22.6068
812.955	19.3176
815.848	18.7141
818.74	16.1755
821.633	15.5297
824.526	17.9627
827.418	17.7744
830.311	17.2433
833.204	19.7091
836.097	16.2725
838.989	12.5292
841.882	17.6299
844.775	20.0348
847.667	15.1044
850.56	15.717
853.453	19.3793
856.346	17.6556
859.238	19.5123
862.131	13.2441
865.024	15.4416
867.916	15.3798
870.809	13.191
873.702	11.7798
876.594	9.53638
879.487	8.97699
882.38	6.32873
885.273	5.45355
888.165	2.88849
891.058	1.24384
893.951	0.523254
896.843	2.0462
899.736	1.7536
902.629	0.186157
905.521	6.27801
908.414	4.57172
911.307	5.28235
914.199	7.02918
917.092	12.5546
919.985	18.7799
922.878	19.26
925.77	23.0419
928.663	29.2879
931.556	28.9116
934.448	28.9416
937.341	33.3636
940.234	36.624
943.126	34.6837
946.019	35.061
948.912	30.3201
951.805	22.5878
954.697	14.7994
957.59	7.62427
960.483	4.14917
963.375	0.447021
966.268	4.62585
969.161	2.33728
972.053	0.953674
974.946	4.38178
977.839	6.21759
980.732	13.9137
983.624	21.5092
986.517	26.5312
989.41	31.8314
992.302	32.49
995.195	29.727
998.088	25.2562
1000.98	18.3668
1003.87	16.6679
1006.77	14.736
1009.66	15.6436
1012.55	18.6277
1015.44	23.066
1018.34	18.7513
1021.23	18.9147
1024.12	19.9902
1027.02	20.9056
1029.91	16.8871
1032.8	17.1377
1035.69	16.0944
1038.59	19.864
1041.48	19.8231
1044.37	20.1637
1047.26	16.8361
1050.16	15.7851
1053.05	15.7911
1055.94	18.4292
1058.83	15.1367
1061.73	17.7103
1064.62	12.147
1067.51	8.64819
1070.4	8.22095
1073.3	10.4852
1076.19	7.79047
1079.08	1.93817
1081.98	9.21704
1084.87	5.37622
1087.76	5.87592
1090.65	9.82977
1093.55	4.46136
1096.44	5.08905
1099.33	1.03833
1102.22	0.945313
1105.12	2.19476
1108.01	0.717163
1110.9	3.36426
1113.8	0.911255
1116.69	0.444153
1119.58	2.86084
1122.47	2.88293
1125.37	5.10986
1128.26	8.82678
1131.15	8.64685
1134.05	10.771
1136.94	10.0555
1139.83	11.4373
1142.72	8.95593
1145.62	8.57623
1148.51	10.0227
1151.4	12.5321
1154.29	6.32928
1157.19	10.6455
1160.08	8.17175
1162.97	10.219
1165.86	6.591
1168.76	13.2281
1171.65	13.4014
1174.54	14.531
1177.43	15.9091
1180.33	16.7695
1183.22	15.8358
1186.11	11.447
1189.01	13.0044
1191.9	12.553
1194.79	9.9071
1197.68	9.27966
1200.58	9.35962
1203.47	9.14325
1206.36	10.3629
1209.26	9.4281
1212.15	9.09296
1215.04	15.0711
1217.93	4.54523
1220.83	4.57385
1223.72	0.258118
1226.61	0.811096
1229.5	5.31183
1232.4	0.788147
1235.29	2.28241
1238.18	4.25659
1241.08	2.53241
1243.97	1.51459
1246.86	0.589355
1249.75	3.12384
1252.64	3.88977
1255.54	7.18677
1258.43	3.91449
1261.32	1.2619
1264.22	0.765747
1267.11	3.33935
1270	9.75452
1272.89	11.2783
1275.79	1.8891
1278.68	8.64673
1281.57	1.62183
