Measurement: Raman, 780 nm, unoriented, Raman Data Processed
Mineral: Zunyite
Rruff sample: R050553
Ideal chemistry: Al_13_Si_5_O_20_(OH,F)_18_Cl
Locality: near Quartzsite, Yuma/La Paz Counties, Arizona, USA
Source: Dave Bunk Minerals
Description: Light gray crystals showing combined octahedral and tetrahedral forms
Measured chemistry: (Al_12.99_Fe^3+^_0.01_)_Σ=13_Si_5.00_O_20_((OH)_14.89_F_3.11_)_Σ=18_Cl_1.00_
Raman shift (cm-1)	intensity
145.58	0
148.473	2.26282
151.366	0.996368
154.258	2.56676
157.151	3.45458
160.044	11.9678
162.936	23.9316
165.829	37.6917
168.722	24.8463
171.615	1.5923
174.507	1.1535
177.4	2.2986
180.293	4.82721
183.185	8.66388
186.078	12.5016
188.971	17.4238
191.863	25.9555
194.756	36.0578
197.649	56.6886
200.542	102.195
203.434	87.4984
206.327	60.2923
209.22	51.5139
212.112	55.8481
215.005	56.8004
217.898	49.2068
220.791	46.8611
223.683	46.8545
226.576	49.6722
229.469	52.1775
232.361	55.09
235.254	58.1728
238.147	55.7064
241.039	52.5169
243.932	48.064
246.825	43.2743
249.718	40.678
252.61	35.0254
255.503	31.6284
258.396	25.5488
261.288	24.0265
264.181	22.6688
267.074	27.1582
269.966	29.9646
272.859	25.3159
275.752	14.7132
278.644	8.63519
281.537	1.31261
284.43	1.12425
287.322	2.60927
290.215	3.15164
293.108	2.2682
296.001	1.52681
298.893	0.049545
301.786	2.60104
304.679	6.80841
307.571	15.2336
310.464	19.5623
313.357	23.8041
316.25	23.7887
319.142	19.1945
322.035	15.3397
324.928	13.185
327.82	10.3257
330.713	9.43384
333.606	7.24927
336.498	5.26175
339.391	0.576126
342.284	2.01529
345.176	1.47846
348.069	0.224274
350.962	6.58435
353.855	22.3743
356.747	46.3688
359.64	55.1769
362.533	40.4907
365.425	31.2628
368.318	29.0112
371.211	32.2651
374.103	35.5255
376.996	41.2434
379.889	45.5075
382.782	48.4793
385.674	51.5141
388.567	51.059
391.46	47.758
394.352	45.7914
397.245	37.4847
400.138	31.8899
403.031	27.4962
405.923	27.3642
408.816	29.328
411.709	36.2291
414.601	46.4758
417.494	58.7177
420.387	76.9956
423.279	94.1784
426.172	113.258
429.065	133.041
431.957	151.92
434.85	172.335
437.743	187.341
440.636	197.965
443.528	206.466
446.421	203.406
449.314	196.128
452.206	176.352
455.099	150.708
457.992	128.498
460.884	112.867
463.777	97.8019
466.67	76.6317
469.562	55.3465
472.455	39.0458
475.348	27.0898
478.241	19.4518
481.133	13.2089
484.026	10.7792
486.919	4.97555
489.811	1.43778
492.704	0.300461
495.597	2.09058
498.49	4.04961
501.382	2.60784
504.275	1.9837
507.168	2.27631
510.06	0.643364
512.953	0.295944
515.846	0.179329
518.738	0.280342
521.631	0.034691
524.524	0.269783
527.417	0.508141
530.309	0.80056
533.202	2.33897
536.095	2.20301
538.987	3.83398
541.88	5.87781
544.773	9.12339
547.665	10.6166
550.558	14.2749
553.451	14.9095
556.343	18.9366
559.236	21.9991
562.129	24.3084
565.021	29.0818
567.914	34.4049
570.807	40.2688
573.7	47.6962
576.592	55.7399
579.485	62.0181
582.378	73.6598
585.27	83.738
588.163	96.1991
591.056	111.472
593.948	124.994
596.841	141.81
599.734	159.673
602.627	176.34
605.519	186.181
608.412	194.93
611.305	194.682
614.197	186.843
617.09	171.244
619.983	154.102
622.875	135.334
625.768	113.978
628.661	93.4331
631.554	75.0203
634.446	61.4844
637.339	47.629
640.232	36.5079
643.124	28.3938
646.017	21.5403
648.91	19.6548
651.803	13.8649
654.695	10.7533
657.588	5.82201
660.481	3.29713
663.373	1.94224
666.266	0.529663
669.159	1.85354
672.051	1.17477
674.944	1.08024
677.837	0.052139
680.73	0.850639
683.622	1.34822
686.515	3.07582
689.408	5.37836
692.3	5.72753
695.193	8.22378
698.086	8.39795
700.978	8.94663
703.871	8.86506
706.764	5.92554
709.656	5.00134
712.549	3.70567
715.442	1.62838
718.335	1.46051
721.227	1.48918
724.12	0.417557
727.013	0.507751
729.905	0.682068
732.798	0.357014
735.691	0.221367
738.583	0.377594
741.476	0.066998
744.369	0.4552
747.261	0.558083
750.154	0.604828
753.047	1.14906
755.94	1.77885
758.832	2.70334
761.725	3.2924
764.618	2.46338
767.51	4.14951
770.403	5.07018
773.296	6.41887
776.188	8.32157
779.081	6.90295
781.974	7.95046
784.867	7.2589
787.759	8.09526
790.652	8.21988
793.545	7.77954
796.437	6.20028
799.33	6.5998
802.223	7.13146
805.115	6.04807
808.008	5.63739
810.901	7.23326
813.794	5.01485
816.686	4.79105
819.579	4.96013
822.472	4.80329
825.364	4.72962
828.257	5.01972
831.15	4.32573
834.043	3.5296
836.935	3.17313
839.828	3.9868
842.721	3.27539
845.613	2.84553
848.506	1.43919
851.399	2.03154
854.291	0.535809
857.184	1.70826
860.077	0.128216
862.97	0.242302
865.862	0.216309
868.755	0.023697
871.648	0.389999
874.54	0.064285
877.433	0.146233
880.326	0.959133
883.218	0.43906
886.111	0.156361
889.004	1.19388
891.896	0.6161
894.789	0.328194
897.682	1.49627
900.574	1.97924
903.467	1.84701
906.36	3.55802
909.253	6.03733
912.145	8.60749
915.038	12.4735
917.931	14.922
920.823	18.7638
923.716	24.1022
926.609	28.6619
929.501	32.6647
932.394	33.4192
935.287	32.3881
938.18	33.3291
941.072	36.3717
943.965	40.701
946.858	42.4848
949.75	40.5591
952.643	33.77
955.536	24.1067
958.428	16.2167
961.321	11.6948
964.214	7.27712
967.107	3.53226
969.999	2.99749
972.892	2.51238
975.785	2.72641
978.677	3.91615
981.57	6.6077
984.463	9.82175
987.356	13.9359
990.248	17.9068
993.141	21.5968
996.034	21.0802
998.926	15.2966
1001.82	10.1715
1004.71	6.14208
1007.6	4.37521
1010.5	4.76394
1013.39	5.32793
1016.28	5.18232
1019.17	5.0392
1022.07	7.84864
1024.96	12.4618
1027.85	10.2885
1030.75	3.68027
1033.64	1.36786
1036.53	0.395576
1039.42	1.0311
1042.32	0.781387
1045.21	0.123505
1048.1	0.207386
1050.99	0.195683
1053.89	1.16948
1056.78	1.52393
1059.67	1.32335
1062.57	1.25199
1065.46	1.33295
1068.35	1.33676
1071.24	1.19801
1074.14	0.325821
1077.03	0.62265
1079.92	2.09993
1082.81	1.93675
1085.71	1.70149
1088.6	1.54459
1091.49	2.23783
1094.38	2.83828
1097.28	3.48822
1100.17	3.09994
1103.06	2.12237
1105.96	0.953381
1108.85	1.38985
1111.74	2.59353
1114.63	1.70334
1117.53	2.23867
1120.42	4.82849
1123.31	5.16204
1126.2	5.69113
1129.1	6.53003
1131.99	7.05763
1134.88	6.60754
1137.78	6.54521
1140.67	5.78014
1143.56	4.05516
1146.45	4.25125
1149.35	2.47424
1152.24	2.83456
1155.13	1.61712
1158.03	2.52475
1160.92	3.53137
1163.81	1.67837
1166.7	2.51689
1169.6	2.43203
1172.49	3.38305
1175.38	3.86986
1178.27	3.38531
1181.17	2.84729
1184.06	2.9192
1186.95	3.82349
1189.84	3.55298
1192.74	3.38274
1195.63	2.82779
1198.52	2.82173
1201.41	0.683802
1204.31	0.213814
1207.2	0.129887
1210.09	0.376999
1212.99	0.071024
1215.88	0.030514
1218.77	0.14637
1221.66	0.635424
1224.56	0.109016
1227.45	0.049612
1230.34	0.650976
1233.23	1.19904
1236.13	0.994795
1239.02	0.51635
1241.91	0.886808
1244.81	2.99553
1247.7	0.619534
1250.59	0.701019
1253.48	1.92411
1256.38	0.670853
1259.27	1.13942
1262.16	0.552849
1265.05	0.471416
1267.95	0.863356
1270.84	1.19172
1273.73	0.700209
1276.62	0.521009
1279.52	0.529762
1282.41	2.14606
1285.3	0.49395
