Measurement: Raman, 532 nm, unoriented, Raman Data RAW
Mineral: Zussmanite
Rruff sample: R050448
Ideal chemistry: K(Fe,Mg,Mn)_13_(Si,Al)_18_O_42_(OH)_14_
Locality: Longvale Quarry, Mendocino County, California, USA
Source: Marcus Origlieri
Description: Aggregate of pale green tabular crystals
Measured chemistry: (K_0.87_[box]_0.13_)_Σ=1_(Fe_10.80_Mg_0.98_Mn_0.89_Al_0.33_)_Σ=13_(Si_16.80_Al_1.20_)_Σ=18_O_42_(OH)_14_
Raman shift (cm-1)	intensity
163.807	0
166.7	1.81587
169.593	5.03358
172.486	5.99728
175.378	3.37788
178.271	2.93215
181.164	2.07312
184.056	1.65364
186.949	6.53787
189.842	8.45954
192.734	8.73093
195.627	6.14258
198.52	5.50686
201.412	2.64964
204.305	1.62688
207.198	0.068653
210.091	0.113292
212.983	0.087917
215.876	0.723606
218.769	0.627088
221.661	1.25456
224.554	1.96959
227.447	3.01124
230.339	6.53372
233.232	9.06573
236.125	11.7141
239.018	17.053
241.91	18.1874
244.803	21.3408
247.696	24.9784
250.588	25.5242
253.481	26.9703
256.374	26.5205
259.267	23.9707
262.159	20.4194
265.052	17.4636
267.945	14.7251
270.837	11.336
273.73	10.4525
276.623	10.5213
279.515	9.7651
282.408	12.5729
285.301	14.6403
288.193	17.3148
291.086	17.9191
293.979	16.1533
296.872	15.337
299.764	14.1928
302.657	12.9479
305.55	10.4087
308.442	7.02682
311.335	4.63087
314.228	1.7165
317.12	2.64916
320.013	2.44208
322.906	2.72151
325.799	3.23334
328.691	1.75955
331.584	0.195562
334.477	0.354995
337.369	0.595605
340.262	0.794654
343.155	2.38545
346.048	1.92594
348.94	1.88783
351.833	1.15431
354.726	0.063746
357.618	0.084668
360.511	0.472639
363.404	0.079902
366.296	0.206731
369.189	0.194822
372.082	0.191181
374.974	1.68335
377.867	4.15151
380.76	7.78909
383.653	11.6932
386.545	14.0447
389.438	17.3308
392.331	20.7671
395.223	23.7476
398.116	26.0051
401.009	28.0138
403.901	28.6457
406.794	28.6459
409.687	26.3588
412.58	22.9874
415.472	16.2344
418.365	10.3568
421.258	5.97608
424.15	4.57921
427.043	2.04747
429.936	2.019
432.829	2.15109
435.721	1.42175
438.614	2.3505
441.507	1.00917
444.399	0.686928
447.292	0.669379
450.185	0.185926
453.077	0.597501
455.97	1.95675
458.863	5.92379
461.755	15.6608
464.648	27.5666
467.541	41.8554
470.434	61.6462
473.326	88.4606
476.219	115.065
479.112	123.33
482.004	101.571
484.897	74.0027
487.79	56.631
490.683	47.5075
493.575	40.69
496.468	33.0681
499.361	25.7309
502.253	20.0115
505.146	16.3265
508.039	14.4356
510.931	12.7979
513.824	11.9622
516.717	10.6629
519.61	8.70851
522.502	3.82404
525.395	2.6983
528.288	1.30773
531.18	0.754996
534.073	0.881543
536.966	0.079792
539.859	0.288844
542.751	0.510668
545.644	3.96247
548.537	7.86223
551.429	15.3233
554.322	23.3537
557.215	32.4224
560.107	43.0173
563	49.3386
565.893	46.4455
568.785	38.8209
571.678	34.4033
574.571	32.8853
577.464	37.4823
580.356	46.3265
583.249	57.4773
586.142	77.318
589.034	106.616
591.927	133.77
594.82	132.527
597.712	93.1943
600.605	58.2538
603.498	37.7289
606.39	24.8875
609.283	17.0676
612.176	10.7548
615.069	5.68053
617.961	2.83508
620.854	0.752644
623.747	0.228309
626.639	0.616968
629.532	0.23516
632.425	0.428684
635.317	0.257189
638.21	1.62457
641.103	4.2057
643.996	8.25857
646.888	14.3687
649.781	22.232
652.674	30.0653
655.566	35.8202
658.459	39.7662
661.352	42.4416
664.245	41.9947
667.137	38.9477
670.03	33.2141
672.923	25.952
675.815	20.9146
678.708	16.4692
681.601	12.0347
684.493	9.22528
687.386	8.55918
690.279	6.03877
693.172	4.46168
696.064	2.90693
698.957	2.69187
701.85	2.40962
704.742	0.67527
707.635	0.80734
710.528	0.635397
713.42	0.487656
716.313	0.271965
719.206	0.060761
722.098	0.499522
724.991	0.252036
727.884	0.33359
730.777	0.385806
733.669	0.05735
736.562	0.019529
739.455	0.164798
742.347	0.103941
745.24	0.10184
748.133	0.036666
751.025	0.357062
753.918	0.673916
756.811	0.937882
759.704	1.22382
762.596	0.829649
765.489	1.41759
768.382	1.62964
771.274	0.879396
774.167	1.92784
777.06	1.84693
779.952	2.32731
782.845	2.22161
785.738	4.13063
788.631	3.34834
791.523	5.62071
794.416	6.8352
797.309	5.95632
800.201	7.2264
803.094	7.72082
805.987	8.35787
808.88	6.96662
811.772	6.29902
814.665	4.10709
817.558	3.88071
820.45	2.38095
823.343	0.85991
826.236	0.21456
829.128	0.251732
832.021	1.73762
834.914	0.378005
837.807	0.43124
840.699	0.988245
843.592	0.153156
846.485	0.042185
849.377	0.160951
852.27	1.08897
855.163	0.569971
858.055	1.58158
860.948	0.435018
863.841	1.04391
866.734	1.90424
869.626	0.904671
872.519	1.22846
875.412	1.30229
878.304	2.67495
881.197	2.19976
884.09	2.49662
886.982	0.879391
889.875	2.304
892.768	1.76174
895.66	0.841403
898.553	1.83702
901.446	1.28133
904.339	1.33188
907.231	1.10885
910.124	1.10984
913.017	0.749468
915.909	1.01524
918.802	0.855143
921.695	1.44488
924.587	0.575646
927.48	0.531453
930.373	0.451218
933.266	0.437668
936.158	0.105587
939.051	0.311801
941.944	0.005959
944.836	0.057182
947.729	0.2639
950.622	0.052571
953.514	0.428084
956.407	0.064188
959.3	0.014448
962.193	0.411334
965.085	0.002901
967.978	0.298097
970.871	0.511821
973.763	0.421778
976.656	0.636029
979.549	1.99686
982.442	2.78759
985.334	2.88862
988.227	2.42107
991.12	1.13511
994.012	1.29858
996.905	0.797116
999.798	1.56255
1002.69	1.31827
1005.58	2.0058
1008.48	2.04876
1011.37	2.43044
1014.26	2.25094
1017.15	4.59064
1020.05	5.65304
1022.94	8.22433
1025.83	10.5715
1028.72	13.5175
1031.62	17.4877
1034.51	21.0318
1037.4	25.3395
1040.3	29.0068
1043.19	28.9277
1046.08	29.5715
1048.97	23.3966
1051.87	17.4316
1054.76	11.2408
1057.65	8.17316
1060.54	5.05648
1063.44	3.15917
1066.33	1.17495
1069.22	0.51738
1072.12	0.197464
1075.01	0.185759
1077.9	0.096722
1080.79	0.14665
1083.69	0.473603
1086.58	1.23425
1089.47	1.53167
1092.36	2.49202
1095.26	4.18083
1098.15	5.22449
1101.04	5.34281
1103.93	6.54612
1106.83	5.76301
1109.72	3.96133
1112.61	4.0685
1115.51	3.29401
1118.4	3.24501
1121.29	2.69031
1124.18	2.20272
1127.08	1.03983
1129.97	2.01857
1132.86	2.91587
1135.76	3.65457
1138.65	4.27295
1141.54	3.30129
1144.43	4.47428
1147.33	4.77843
1150.22	5.91077
1153.11	5.95709
1156	5.69818
1158.9	4.1087
1161.79	3.00215
1164.68	2.3436
1167.57	1.66877
1170.47	0.087065
1173.36	0.028311
1176.25	0.424942
1179.14	0.140832
1182.04	0.643563
1184.93	0.076678
1187.82	0.325423
1190.72	0.210886
1193.61	1.1866
1196.5	0.507786
1199.39	1.42438
1202.29	1.18924
1205.18	0.170232
1208.07	0.309875
1210.96	1.05229
