Measurement: Raman, 532 nm, unoriented, Raman Data Processed
Mineral: Zwieselite
Rruff sample: R050279
Ideal chemistry: Fe^2+^Mn^2+^PO_4_F
Locality: Cornelia mine, Hagendorf, Bavaria, Germany
Source: Marcus Origlieri
Description: Brown massive associated with bluish-gray triphylite R050366
Measured chemistry: (Fe^2+^_1.08_Mn^2+^_0.86_Ca_0.06_)_Î£=2_(P_1.00_O_4_)F_1.00_
Raman shift (cm-1)	intensity
135.932	0
138.825	5.48553
141.717	6.37195
144.61	7.25473
147.503	13.3701
150.395	17.8361
153.288	24.0309
156.181	24.1975
159.073	25.1322
161.966	21.9005
164.859	20.9275
167.751	23.9606
170.644	28.1881
173.537	30.4476
176.43	27.323
179.322	26.1127
182.215	22.3411
185.108	18.1133
188	14.8737
190.893	10.8667
193.786	7.22458
196.679	4.6232
199.571	1.76599
202.464	1.44998
205.357	1.47791
208.249	1.21115
211.142	2.61618
214.035	1.04623
216.927	2.56238
219.82	3.3411
222.713	1.44711
225.606	0.035919
228.498	2.62054
231.391	0.349091
234.284	3.27658
237.176	4.76938
240.069	9.42248
242.962	11.7185
245.854	18.3661
248.747	18.0873
251.64	20.5743
254.532	20.9018
257.425	21.2922
260.318	17.4984
263.211	18.5174
266.103	16.725
268.996	16.5996
271.889	21.1694
274.781	21.898
277.674	23.3601
280.567	22.5191
283.459	18.9297
286.352	15.9439
289.245	10.9445
292.138	13.1885
295.03	10.8797
297.923	12.844
300.816	12.2158
303.708	13.9964
306.601	16.4295
309.494	20.1891
312.387	15.8913
315.279	16.8631
318.172	17.0041
321.065	15.8236
323.957	11.2944
326.85	10.1346
329.743	9.43765
332.635	8.43262
335.528	5.68863
338.421	5.11481
341.313	4.17746
344.206	2.81235
347.099	2.65622
349.991	3.49698
352.884	1.306
355.777	0.49942
358.67	0.998901
361.562	2.60239
364.455	1.61282
367.348	1.25052
370.24	1.20285
373.133	2.97668
376.026	1.12295
378.918	5.67905
381.811	4.26773
384.704	9.04883
387.597	9.72583
390.489	13.4505
393.382	16.8596
396.275	18.7296
399.167	28.5219
402.06	37.9643
404.953	51.9623
407.846	68.3688
410.738	89.0419
413.631	115.86
416.524	145.661
419.416	173.205
422.309	194.153
425.202	206.335
428.094	194.695
430.987	148.66
433.88	105.567
436.773	78.5974
439.665	62.0001
442.558	51.7281
445.451	47.3793
448.343	45.7503
451.236	47.7295
454.129	47.303
457.021	45.196
459.914	38.4437
462.807	30.7536
465.7	22.4211
468.592	21.5338
471.485	14.2805
474.378	11.3838
477.27	10.0733
480.163	7.04883
483.056	5.78104
485.948	2.5806
488.841	4.84049
491.734	2.99258
494.627	0.786804
497.519	1.57489
500.412	0.441956
503.305	0.7966
506.197	0.266479
509.09	2.48608
511.983	3.18787
514.875	2.06848
517.768	0.200134
520.661	1.11829
523.553	0.502716
526.446	0.947479
529.339	0.707947
532.232	1.63223
535.124	0.648956
538.017	0.724731
540.91	0.872131
543.802	0.206512
546.695	0.775391
549.588	2.44965
552.481	9.37299
555.373	9.9259
558.266	15.3013
561.159	24.8287
564.051	30.5334
566.944	35.3007
569.837	38.2153
572.729	39.1704
575.622	40.1111
578.515	43.8313
581.408	53.4732
584.3	67.4791
587.193	83.9888
590.086	105.7
592.978	133.664
595.871	160.389
598.764	183.352
601.656	194.395
604.549	203.519
607.442	209.221
610.335	199.09
613.227	162.387
616.12	114.174
619.013	74.4426
621.905	47.1623
624.798	30.5909
627.691	21.0286
630.583	10.8864
633.476	7.09802
636.369	5.44855
639.261	5.36411
642.154	2.07623
645.047	3.58237
647.94	2.68698
650.832	6.3627
653.725	3.94778
656.618	5.5332
659.51	7.24847
662.403	8.83826
665.296	9.34659
668.188	11.6013
671.081	11.2181
673.974	9.12268
676.867	10.7747
679.759	11.4276
682.652	9.41592
685.545	6.86078
688.437	7.19006
691.33	5.69412
694.223	1.66965
697.115	3.04565
700.008	3.67343
702.901	0.883881
705.794	0.549683
708.686	2.67017
711.579	1.09485
714.472	0.993927
717.364	1.92371
720.257	2.13727
723.15	2.19116
726.043	2.83935
728.935	1.64581
731.828	1.37268
734.721	1.19772
737.613	1.83981
740.506	5.26834
743.399	9.01623
746.291	11.5089
749.184	16.9605
752.077	21.7763
754.97	24.6317
757.862	29.3038
760.755	34.7801
763.648	39.7837
766.54	45.202
769.433	45.0041
772.326	49.2095
775.218	49.791
778.111	49.8685
781.004	51.8781
783.896	56.5031
786.789	54.798
789.682	59.5536
792.574	58.4937
795.467	58.0014
798.36	59.547
801.253	60.117
804.145	58.5081
807.038	54.7448
809.931	52.8539
812.823	49.8317
815.716	45.7104
818.609	41.8372
821.501	34.2862
824.394	29.0937
827.287	25.278
830.18	20.1189
833.072	15.8936
835.965	13.6019
838.858	13.8358
841.75	9.50867
844.643	9.78964
847.536	8.13669
850.428	10.4865
853.321	10.0287
856.214	8.80078
859.107	8.78632
861.999	8.51303
864.892	8.07703
867.785	11.4633
870.677	8.99078
873.57	10.1373
876.463	9.16937
879.356	10.447
882.248	8.55081
885.141	7.56519
888.034	7.08411
890.926	7.06506
893.819	6.09766
896.712	3.53012
899.604	0.085693
902.497	3.36301
905.39	0.685364
908.283	0.019043
911.175	1.75436
914.068	1.52637
916.961	3.50574
919.853	2.83115
922.746	4.22037
925.639	5.02725
928.531	3.09665
931.424	1.39706
934.317	2.44305
937.21	4.68762
940.102	7.36026
942.995	18.5256
945.888	30.6643
948.78	54.6317
951.673	85.7962
954.566	137.899
957.458	212.314
960.351	322.733
963.244	479.998
966.136	693.447
969.029	989.613
971.922	1348.48
974.815	1766.07
977.707	2147.27
980.6	2221.93
983.493	1699.48
986.385	954.729
989.278	505.553
992.171	295.021
995.063	192.461
997.956	140.376
1000.85	108.07
1003.74	93.2689
1006.63	82.4872
1009.53	83.2065
1012.42	84.49
1015.31	86.8194
1018.21	92.654
1021.1	99.2467
1023.99	106.983
1026.88	116.237
1029.78	127.353
1032.67	131.653
1035.56	129.373
1038.45	117.508
1041.35	92.5175
1044.24	63.0001
1047.13	37.3405
1050.03	19.8268
1052.92	14.5017
1055.81	14.1531
1058.7	29.6246
1061.6	46.0527
1064.49	72.91
1067.38	106.81
1070.27	122.674
1073.17	110.887
1076.06	71.804
1078.95	43.9321
1081.84	23.5643
1084.74	9.86551
1087.63	2.35001
1090.52	1.90366
1093.41	4.10208
1096.31	7.02615
1099.2	4.54428
1102.09	3.35187
1104.99	3.06677
1107.88	1.11716
1110.77	0.850739
1113.66	5.39218
1116.56	11.662
1119.45	15.5688
1122.34	18.9356
1125.23	21.2493
1128.13	17.579
1131.02	14.111
1133.91	9.98752
1136.81	5.89865
1139.7	4.22025
1142.59	4.52988
1145.48	3.28613
1148.38	6.66644
1151.27	1.17065
1154.16	3.93793
1157.06	1.63516
1159.95	3.74112
1162.84	5.33466
1165.73	5.29654
1168.62	7.42337
1171.52	9.40479
1174.41	8.59445
1177.3	9.91669
1180.2	10.6633
1183.09	11.1715
1185.98	10.095
1188.87	12.6032
1191.77	13.2175
1194.66	13.8908
1197.55	10.7186
1200.44	8.83225
1203.34	9.87286
1206.23	9.46503
1209.12	7.58225
1212.02	8.09213
1214.91	6.7999
1217.8	5.09692
1220.69	4.77786
1223.59	5.66956
1226.48	5.54169
1229.37	4.17569
1232.27	4.20252
1235.16	5.73059
1238.05	1.86145
1240.94	1.39154
1243.84	4.1817
1246.73	2.88379
1249.62	4.73441
1252.51	3.41305
1255.41	4.05679
1258.3	1.93082
1261.19	2.43375
1264.09	1.30649
1266.98	1.90497
1269.87	0.96167
1272.76	1.46249
1275.65	0.907715
1278.55	0.513306
1281.44	1.07193
1284.33	2.89227
1287.23	2.57736
1290.12	2.4476
