Measurement: Raman, 780 nm, unoriented, Raman Data Processed
Mineral: Zwieselite
Rruff sample: R050279
Ideal chemistry: Fe^2+^Mn^2+^PO_4_F
Locality: Cornelia mine, Hagendorf, Bavaria, Germany
Source: Marcus Origlieri
Description: Brown massive associated with bluish-gray triphylite R050366
Measured chemistry: (Fe^2+^_1.08_Mn^2+^_0.86_Ca_0.06_)_Î£=2_(P_1.00_O_4_)F_1.00_
Raman shift (cm-1)	intensity
134.617	0
137.51	0.973297
140.402	4.232
143.295	6.37308
146.188	10.2146
149.081	12.1716
151.973	16.2366
154.866	16.8479
157.759	19.1256
160.651	18.2816
163.544	19.1387
166.437	19.8882
169.329	25.7117
172.222	29.6331
175.115	28.5561
178.007	25.7272
180.9	19.2624
183.793	14.9308
186.686	10.5749
189.578	7.48535
192.471	3.47174
195.364	3.55356
198.256	0.764496
201.149	2.04556
204.042	1.66943
206.935	1.41031
209.827	0.017426
212.72	1.26437
215.613	1.2634
218.505	1.0639
221.398	2.36691
224.291	2.34399
227.183	2.07336
230.076	1.91421
232.969	3.21097
235.862	5.50665
238.754	6.81046
241.647	11.1646
244.54	12.2832
247.432	13.5388
250.325	13.1667
253.218	15.1692
256.11	12.8545
259.003	13.3826
261.896	8.73817
264.788	8.94727
267.681	9.61757
270.574	9.81547
273.467	9.49895
276.359	10.1502
279.252	8.66112
282.145	7.42287
285.037	6.16653
287.93	4.69794
290.823	5.63728
293.716	5.3231
296.608	6.7843
299.501	6.78621
302.394	7.33798
305.286	9.42642
308.179	8.68556
311.072	11.0235
313.964	8.68892
316.857	9.09467
319.75	8.5267
322.642	7.43469
325.535	3.48178
328.428	3.06094
331.321	3.4584
334.213	2.0372
337.106	1.67216
339.999	1.56639
342.891	1.54985
345.784	0.541245
348.677	0.731461
351.57	0.163727
354.462	0.228516
357.355	0.712723
360.248	0.086761
363.14	0.506821
366.033	0.384903
368.926	0.164658
371.818	1.23895
374.711	1.30594
377.604	2.98772
380.497	4.0742
383.389	5.80373
386.282	8.18745
389.175	10.3681
392.067	12.6871
394.96	18.2567
397.853	24.9743
400.745	32.9744
403.638	44.9119
406.531	59.4721
409.423	79.6139
412.316	99.0843
415.209	121.814
418.102	142.575
420.994	160.557
423.887	174.376
426.78	170.708
429.672	138.724
432.565	99.9651
435.458	71.8149
438.351	55.9165
441.243	46.9639
444.136	43.0621
447.029	41.9277
449.921	40.7674
452.814	39.2712
455.707	37.3512
458.599	32.379
461.492	26.8484
464.385	22.7508
467.277	16.0908
470.17	13.4668
473.063	11.5322
475.956	8.30008
478.848	6.11475
481.741	4.53508
484.634	4.24022
487.526	3.04048
490.419	1.27042
493.312	1.85303
496.204	1.3219
499.097	0.625854
501.99	0.071548
504.882	0.689682
507.775	0.368347
510.668	0.372681
513.561	1.47263
516.453	0.674484
519.346	0.556442
522.239	0.866669
525.131	1.21567
528.024	1.70995
530.917	0.686188
533.81	0.271393
536.702	0.513092
539.595	1.03104
542.488	2.7088
545.38	3.57806
548.273	4.52214
551.166	7.94385
554.058	10.2335
556.951	15.523
559.844	17.8802
562.737	22.3183
565.629	26.2786
568.522	29.7015
571.415	31.8433
574.307	33.0998
577.2	36.0857
580.093	41.5194
582.986	51.399
585.878	64.4316
588.771	79.6858
591.663	97.2325
594.556	112.816
597.449	127.26
600.342	135.747
603.234	140.605
606.127	145.274
609.02	140.438
611.912	118.183
614.805	85.3446
617.698	56.9268
620.591	36.3039
623.483	22.435
626.376	14.3305
629.269	8.16283
632.161	5.6832
635.054	0.965607
637.947	0.916321
640.839	1.53574
643.732	0.284088
646.625	1.29668
649.518	1.23798
652.41	1.50166
655.303	0.736328
658.196	0.667511
661.088	0.889923
663.981	1.01152
666.874	1.32732
669.766	1.17326
672.659	1.73108
675.552	1.72003
678.444	0.744614
681.337	1.28961
684.23	1.5168
687.123	1.29007
690.015	0.026749
692.908	1.37013
695.801	0.966202
698.693	0.044968
701.586	0.146881
704.479	0.05368
707.371	0.215256
710.264	0.728394
713.157	0.53923
716.05	0.530624
718.942	0.421677
721.835	1.06206
724.728	0.290176
727.62	0.70575
730.513	0.831482
733.406	1.22044
736.298	1.40408
739.191	1.94455
742.084	3.53561
744.977	4.76465
747.869	3.82181
750.762	7.05701
753.655	8.40669
756.547	7.98015
759.44	12.286
762.333	15.0606
765.226	12.0322
768.118	11.3444
771.011	13.6493
773.904	13.2284
776.796	15.1477
779.689	14.7216
782.582	16.2021
785.474	15.1617
788.367	14.6371
791.26	15.3964
794.153	16.1997
797.045	16.8731
799.938	15.9139
802.831	15.805
805.723	14.2016
808.616	15.7753
811.509	15.6352
814.401	12.3706
817.294	11.5184
820.187	10.1808
823.08	8.40668
825.972	7.95641
828.865	7.86778
831.758	6.91556
834.65	6.17105
837.543	4.53461
840.436	3.14583
843.328	4.00822
846.221	3.35161
849.114	3.15115
852.006	2.74889
854.899	3.2316
857.792	3.75723
860.685	3.54402
863.577	4.16188
866.47	4.93736
869.363	5.83972
872.255	6.52583
875.148	5.28413
878.041	5.51474
880.933	4.97324
883.826	4.26709
886.719	4.31929
889.612	3.68465
892.504	2.08043
895.397	4.40892
898.29	2.15564
901.182	0.825485
904.075	1.41589
906.968	0.325241
909.861	0.22612
912.753	0.16301
915.646	0.70903
918.539	1.6642
921.431	1.64879
924.324	2.24187
927.217	2.55261
930.109	1.47415
933.002	1.28177
935.895	0.024948
938.788	3.34581
941.68	6.85883
944.573	15.0909
947.466	25.7637
950.358	42.5548
953.251	67.9605
956.144	104.454
959.036	158.519
961.929	236.607
964.822	341.171
967.715	476.619
970.607	619.426
973.5	770.992
976.393	901.393
979.285	928.319
982.178	757.814
985.071	462.385
987.963	243.295
990.856	140.243
993.749	90.0832
996.641	65.4971
999.534	51.4985
1002.43	45.4886
1005.32	40.4168
1008.21	39.9318
1011.11	41.7614
1014	45.0132
1016.89	48.4553
1019.78	52.9995
1022.68	57.1238
1025.57	64.0248
1028.46	69.2397
1031.35	71.7514
1034.25	70.7799
1037.14	64.3282
1040.03	51.4658
1042.92	37.432
1045.82	23.999
1048.71	15.3138
1051.6	10.4097
1054.49	13.4921
1057.39	20.8065
1060.28	30.93
1063.17	44.2589
1066.07	58.0934
1068.96	73.3018
1071.85	60.3332
1074.74	42.3904
1077.64	24.5055
1080.53	12.746
1083.42	5.4239
1086.32	1.37834
1089.21	0.087051
1092.1	1.88721
1094.99	1.40666
1097.89	2.88995
1100.78	2.17632
1103.67	3.19778
1106.56	0.375
1109.46	0.847076
1112.35	2.93387
1115.24	6.60527
1118.13	8.40997
1121.03	12.0936
1123.92	12.8117
1126.81	10.974
1129.71	8.0567
1132.6	5.89496
1135.49	4.0152
1138.38	1.85915
1141.28	0.893219
1144.17	1.66496
1147.06	0.927513
1149.95	2.96382
1152.85	1.46402
1155.74	1.90813
1158.63	3.45603
1161.53	1.92314
1164.42	1.86249
1167.31	3.20879
1170.2	3.86143
1173.1	4.21001
1175.99	3.35021
1178.88	4.62315
1181.77	5.85391
1184.67	6.17836
1187.56	6.24957
1190.45	6.76834
1193.35	6.35856
1196.24	6.27848
1199.13	5.86144
1202.02	5.10842
1204.92	3.85627
1207.81	3.96523
1210.7	2.94615
1213.59	3.74591
1216.49	2.45715
1219.38	2.42057
1222.27	1.92754
1225.16	2.13331
1228.06	1.89837
1230.95	2.6124
1233.84	1.00342
1236.74	1.83221
1239.63	1.71921
1242.52	0.892479
1245.41	0.771408
1248.31	1.15253
1251.2	1.00205
1254.09	0.965652
1256.98	1.24612
1259.88	0.559563
1262.77	0.276794
1265.66	0.71077
1268.56	0.535385
1271.45	0.123032
1274.34	0.155167
1277.23	0.527824
1280.13	0.982666
1283.02	0.028725
1285.91	0.411797
