Measurement: Raman, 514 nm, unoriented, Raman Data Processed
Mineral: Zwieselite
Rruff sample: R050279
Ideal chemistry: Fe^2+^Mn^2+^PO_4_F
Locality: Cornelia mine, Hagendorf, Bavaria, Germany
Source: Marcus Origlieri
Description: Brown massive associated with bluish-gray triphylite R050366
Measured chemistry: (Fe^2+^_1.08_Mn^2+^_0.86_Ca_0.06_)_Î£=2_(P_1.00_O_4_)F_1.00_
Raman shift (cm-1)	intensity
52.866	0
57.065	42.095
61.262	7.101
65.458	6.863
69.651	120.6
73.842	380.443
78.031	775.723
82.218	1481.9
86.404	1938.7
90.587	2302.25
94.768	1982.03
98.947	1582.54
103.124	1303.2
107.3	1424.66
111.473	1505.7
115.644	1638.16
119.813	1197.9
123.981	929.828
128.146	877.985
132.309	793.541
136.47	850.39
140.63	864.453
144.787	944.602
148.942	1057.08
153.096	1242.98
157.247	1481.36
161.396	1672.24
165.544	1770.62
169.689	1817.51
173.833	1675.9
177.974	1540.77
182.114	1350.11
186.251	1209.91
190.387	1116.14
194.52	1087.81
198.652	1083.96
202.782	1128.54
206.909	1323.68
211.035	1215.81
215.159	1178.18
219.281	1184.78
223.4	1075.25
227.518	1036.11
231.634	930.267
235.748	1104.07
239.86	1311.72
243.97	1449.09
248.079	1391.09
252.185	1180.65
256.289	813.715
260.391	587.229
264.492	439.156
268.59	380.462
272.687	374.12
276.781	417.107
280.874	459.401
284.964	390.985
289.053	351.84
293.14	314.95
297.225	262.295
301.308	231.855
305.389	195.622
309.468	198.595
313.545	159.77
317.62	155.141
321.693	98.702
325.765	62.444
329.834	46.361
333.902	34.445
337.967	34.315
342.031	3.944
346.093	1.436
350.153	22.796
354.21	25.848
358.267	56.49
362.321	39.159
366.373	13.957
370.423	20.577
374.471	3.024
378.518	41.929
382.563	59.695
386.605	69.264
390.646	152.422
394.685	178.673
398.722	181.078
402.757	252.99
406.79	442.062
410.821	690.284
414.851	1012.64
418.878	1170.09
422.904	1218.62
426.927	1188.22
430.949	1199.86
434.969	1310.55
438.987	1600.26
443.003	2120.01
447.018	3007.78
451.03	3866.56
455.041	4344.36
459.049	4002.16
463.056	3140.95
467.061	2216.75
471.064	1576.54
475.065	1077.31
479.064	784.06
483.062	592.79
487.057	480.492
491.051	310.162
495.043	267.795
499.032	208.332
503.02	145.095
507.007	87.473
510.991	55.976
514.973	17.042
518.954	14.585
522.933	10.048
526.91	26.014
530.885	24.275
534.858	12.245
538.829	0.326
542.799	12.065
546.766	19.715
550.732	18.159
554.696	40.965
558.658	124.613
562.618	233.675
566.576	372.938
570.533	505.103
574.488	610.917
578.44	599.023
582.391	603.713
586.341	776.652
590.288	1185.27
594.233	1715.76
598.177	2230.14
602.119	2533.39
606.059	2642.52
609.997	2503.52
613.933	2073.4
617.868	1498.15
621.801	941.771
625.731	702.263
629.66	462.625
633.588	348.857
637.513	322.958
641.437	257.928
645.358	256.767
649.278	214.475
653.196	222.051
657.113	226.503
661.027	206.843
664.94	212.056
668.851	133.148
672.76	165.192
676.667	147.488
680.572	124.47
684.476	93.137
688.378	70.467
692.278	117.037
696.176	29.194
700.072	48.726
703.967	12.037
707.86	29.091
711.751	4.61
715.64	11.085
719.527	4.405
723.413	14.03
727.297	23.446
731.179	45.882
735.059	66.71
738.937	51.335
742.814	91.859
746.689	122.3
750.562	180.659
754.433	263.941
758.303	311.147
762.17	346.282
766.036	382.348
769.901	434.572
773.763	458.287
777.624	505.166
781.482	556.99
785.339	534.763
789.195	544.487
793.048	583.167
796.9	565.805
800.75	590.406
804.598	548.974
808.445	528.511
812.289	451.023
816.132	405.512
819.973	363.983
823.813	327.438
827.65	203.889
831.486	152.069
835.32	117.896
839.152	95.454
842.983	38.948
846.812	18.802
850.639	22.379
854.464	19.68
858.288	47.051
862.11	27.002
865.93	29.357
869.748	3.546
873.564	40.178
877.379	34.195
881.192	52.505
885.004	15.935
888.813	36.074
892.621	12.019
896.427	25.04
900.232	48.682
904.034	115.34
907.835	127.626
911.634	201.009
915.432	259.492
919.227	286.078
923.021	410.771
926.813	479.575
930.604	588.492
934.393	687.525
938.18	915.679
941.965	1123.95
945.749	1486.36
949.53	2046.89
953.311	2822.55
957.089	4182.35
960.866	6763.28
964.641	10570.4
968.414	16593.6
972.185	26683.9
975.955	42800.4
979.723	58790.1
983.49	53543.9
987.254	28353
991.017	13838.2
994.779	7989.59
998.538	5731.23
1002.3	4621.85
1006.05	4041.56
1009.81	3819.11
1013.56	3729.2
1017.31	3715.34
1021.06	3857.48
1024.81	4021.39
1028.55	4296.09
1032.3	4561.64
1036.04	4777.87
1039.78	4658.58
1043.52	4082.09
1047.26	3179.8
1050.99	2444.7
1054.73	1847.8
1058.46	1483.1
1062.19	1298.67
1065.92	1239.21
1069.65	1234.02
1073.37	1242.01
1077.1	1072.16
1080.82	877.488
1084.54	740.973
1088.26	601.621
1091.97	524.427
1095.69	394.388
1099.4	365.512
1103.12	317.793
1106.83	280.229
1110.54	325.815
1114.24	359.552
1117.95	453.432
1121.65	701.452
1125.35	767.609
1129.06	687.334
1132.75	485.509
1136.45	303.214
1140.15	178.965
1143.84	95.707
1147.53	20.863
1151.22	8.45
1154.91	39.894
1158.6	9.04
1162.28	11.858
1165.97	39.872
1169.65	55.47
1173.33	68.117
1177.01	59.536
1180.69	59.052
1184.36	82.311
1188.04	121.331
1191.71	142.034
1195.38	135.775
1199.05	138.199
1202.71	147.175
1206.38	137.889
1210.04	119.188
1213.71	93.668
1217.37	92.475
1221.03	103.211
1224.68	69.784
1228.34	108.356
1231.99	73.889
1235.65	53.26
1239.3	83.52
1242.95	85.051
1246.59	83.008
1250.24	74.712
1253.88	34.903
1257.53	52.69
1261.17	44.966
1264.81	43.112
1268.45	8.121
1272.08	18.983
1275.72	0.34
1279.35	4.145
1282.98	22.501
1286.61	25.347
1290.24	21.982
1293.87	24.611
1297.49	20.007
1301.11	30.477
1304.73	6.285
1308.36	9.307
1311.97	4.338
1315.59	6.151
1319.2	13.064
1322.82	18.692
1326.43	5.188
1330.04	11.929
1333.65	7.889
1337.26	1.303
1340.86	25.354
1344.47	5.125
1348.07	22.242
1351.67	20.492
1355.27	63.661
1358.87	46.628
1362.46	73.795
1366.06	80.527
1369.65	63.18
1373.24	56.659
1376.83	67.186
1380.42	72.05
1384	89.083
1387.59	31.973
1391.17	56.722
1394.75	104.325
1398.33	87.482
1401.91	99.366
1405.49	97.754
1409.06	94.736
1412.64	87.217
1416.21	79.161
1419.78	70.774
1423.35	83.827
1426.91	75.259
1430.48	87.306
1434.05	90.601
1437.61	95.975
1441.17	93.94
1444.73	90.468
1448.29	70.934
1451.84	68.556
1455.4	64.666
1458.95	98.405
1462.5	58.511
1466.05	62.073
1469.6	40.878
1473.15	34.361
1476.69	47.093
1480.24	63.142
1483.78	35.18
1487.32	24.516
1490.86	37.746
1494.39	19.895
1497.93	42.417
1501.46	24.18
1505	24.163
1508.53	15.101
1512.06	60.888
1515.59	2.406
1519.11	12.125
